13
acq.gzmat
C          0.00000        0.00000        0.00000
H          1.09300        0.00000        0.00000
N         -0.47961        0.00000       -1.41207
H          0.33026       -0.03020       -2.03258
H         -1.06559       -0.81938       -1.55824
C         -0.49584        1.26211        0.72868
H         -1.58789        1.28919        0.74431
H         -0.13407        1.27425        1.75947
H         -0.13407        2.16087        0.22380
C         -0.39425       -1.28861        0.74398
O         -0.10189       -1.56493        1.88303
O         -1.10210       -2.13717        0.06896
H         -1.32319       -2.74588        0.79392
13
acq.gzmat
C          0.00000        0.00000        0.00000
H          1.09300        0.00000        0.00000
N         -0.47961        0.00000       -1.41207
H          0.27001        0.34620       -2.01211
H         -0.72781       -0.95208       -1.67297
C         -0.49584        1.26211        0.72868
H         -1.58789        1.28919        0.74431
H         -0.13407        1.27425        1.75947
H         -0.13407        2.16087        0.22380
C         -0.39425       -1.28861        0.74398
O         -0.10189       -1.56493        1.88303
O         -1.10210       -2.13717        0.06896
H         -1.05618       -2.88481        0.68857
13
acq.gzmat
C          0.00000        0.00000        0.00000
H          1.09300        0.00000        0.00000
N         -0.47961        0.00000       -1.41207
H         -1.38861       -0.46282       -1.44876
H         -0.56241        0.96371       -1.72915
C         -0.49584        1.26211        0.72868
H         -1.58789        1.28919        0.74431
H         -0.13407        1.27425        1.75947
H         -0.13407        2.16087        0.22380
C         -0.39425       -1.28861        0.74398
O         -0.10189       -1.56493        1.88303
O         -1.10210       -2.13717        0.06896
H         -1.50265       -2.61351        0.81571
13
acq.gzmat
C          0.00000        0.00000        0.00000
H          1.09300        0.00000        0.00000
N         -0.47961        0.00000       -1.41207
H         -0.67831       -0.96182       -1.69002
H         -1.32447        0.56474       -1.47031
C         -0.49584        1.26211        0.72868
H         -1.58789        1.28919        0.74431
H         -0.13407        1.27425        1.75947
H         -0.13407        2.16087        0.22380
C         -0.39425       -1.28861        0.74398
O         -0.10189       -1.56493        1.88303
O         -1.10210       -2.13717        0.06896
H         -1.79669       -2.29955        0.72938
13
acq.gzmat
C          0.00000        0.00000        0.00000
H          1.09300        0.00000        0.00000
N         -0.47961        0.00000       -1.41207
H          0.32550       -0.10302       -2.03096
H         -1.12275       -0.77873       -1.53883
C         -0.49584        1.26211        0.72868
H         -1.58789        1.28919        0.74431
H         -0.13407        1.27425        1.75947
H         -0.13407        2.16087        0.22380
C         -0.39425       -1.28861        0.74398
O         -0.10189       -1.56493        1.88303
O         -1.10210       -2.13717        0.06896
H         -1.60349       -1.50453       -0.47265
13
acq.gzmat
C          0.00000        0.00000        0.00000
H          1.09300        0.00000        0.00000
N         -0.47961        0.00000       -1.41207
H         -1.47839        0.21028       -1.41827
H          0.03266        0.71003       -1.93126
C         -0.49584        1.26211        0.72868
H         -1.58789        1.28919        0.74431
H         -0.13407        1.27425        1.75947
H         -0.13407        2.16087        0.22380
C         -0.39425       -1.28861        0.74398
O         -0.10189       -1.56493        1.88303
O         -1.10210       -2.13717        0.06896
H         -1.06353       -1.69701       -0.79692
13
acq.gzmat
C          0.00000        0.00000        0.00000
H          1.09300        0.00000        0.00000
N         -0.47961        0.00000       -1.41207
H          0.18780        0.51872       -1.98419
H         -0.54578       -0.96312       -1.73479
C         -0.49584        1.26211        0.72868
H         -1.58789        1.28919        0.74431
H         -0.13407        1.27425        1.75947
H         -0.13407        2.16087        0.22380
C         -0.39425       -1.28861        0.74398
O         -0.10189       -1.56493        1.88303
O         -1.10210       -2.13717        0.06896
H         -0.47927       -2.29244       -0.66108
13
acq.gzmat
C          0.00000        0.00000        0.00000
H          1.09300        0.00000        0.00000
N         -0.47961        0.00000       -1.41207
H         -0.18806       -0.87137       -1.85653
H         -1.49492        0.07260       -1.41242
C         -0.49584        1.26211        0.72868
H         -1.58789        1.28919        0.74431
H         -0.13407        1.27425        1.75947
H         -0.13407        2.16087        0.22380
C         -0.39425       -1.28861        0.74398
O         -0.10189       -1.56493        1.88303
O         -1.10210       -2.13717        0.06896
H         -1.11495       -2.85992        0.71892
13
acq.gzmat
C          0.00000        0.00000        0.00000
H          1.09300        0.00000        0.00000
N         -0.47961        0.00000       -1.41207
H         -0.43184        0.95328       -1.77373
H          0.11840       -0.61470       -1.96038
C         -0.49584        1.26211        0.72868
H         -1.58789        1.28919        0.74431
H         -0.13407        1.27425        1.75947
H         -0.13407        2.16087        0.22380
C         -0.39425       -1.28861        0.74398
O         -0.10189       -1.56493        1.88303
O         -1.10210       -2.13717        0.06896
H         -1.05090       -2.88688        0.68564
13
acq.gzmat
C          0.00000        0.00000        0.00000
H          1.09300        0.00000        0.00000
N         -0.47961        0.00000       -1.41207
H         -1.36895       -0.49901       -1.45544
H         -0.60180        0.96383       -1.71577
C         -0.49584        1.26211        0.72868
H         -1.58789        1.28919        0.74431
H         -0.13407        1.27425        1.75947
H         -0.13407        2.16087        0.22380
C         -0.39425       -1.28861        0.74398
O         -0.10189       -1.56493        1.88303
O         -1.10210       -2.13717        0.06896
H         -1.07310       -2.87798        0.69772
13
acq.gzmat
C          0.00000        0.00000        0.00000
H          1.09300        0.00000        0.00000
N         -0.47961        0.00000       -1.41207
H         -0.41865        0.95082       -1.77821
H          0.10981       -0.62550       -1.95746
C         -0.49584        1.26211        0.72868
H         -1.58789        1.28919        0.74431
H         -0.13407        1.27425        1.75947
H         -0.13407        2.16087        0.22380
C         -0.39425       -1.28861        0.74398
O         -0.10189       -1.56493        1.88303
O         -1.10210       -2.13717        0.06896
H         -1.33157       -1.56456       -0.68233
13
acq.gzmat
C          0.00000        0.00000        0.00000
H          1.09300        0.00000        0.00000
N         -0.47961        0.00000       -1.41207
H         -0.10520        0.82359       -1.88467
H         -0.15047       -0.84791       -1.86906
C         -0.49584        1.26211        0.72868
H         -1.58789        1.28919        0.74431
H         -0.13407        1.27425        1.75947
H         -0.13407        2.16087        0.22380
C         -0.39425       -1.28861        0.74398
O         -0.10189       -1.56493        1.88303
O         -1.10210       -2.13717        0.06896
H         -1.47341       -2.63746        0.81516
13
acq.gzmat
C          0.00000        0.00000        0.00000
H          1.09300        0.00000        0.00000
N         -0.47961        0.00000       -1.41207
H         -0.73540        0.95370       -1.67063
H          0.27007       -0.33810       -2.01190
C         -0.49584        1.26211        0.72868
H         -1.58789        1.28919        0.74431
H         -0.13407        1.27425        1.75947
H         -0.13407        2.16087        0.22380
C         -0.39425       -1.28861        0.74398
O         -0.10189       -1.56493        1.88303
O         -1.10210       -2.13717        0.06896
H         -1.14997       -1.64700       -0.76914
13
acq.gzmat
C          0.00000        0.00000        0.00000
H          1.09300        0.00000        0.00000
N         -0.47961        0.00000       -1.41207
H         -1.44403        0.33377       -1.42994
H          0.11649        0.61713       -1.95973
C         -0.49584        1.26211        0.72868
H         -1.58789        1.28919        0.74431
H         -0.13407        1.27425        1.75947
H         -0.13407        2.16087        0.22380
C         -0.39425       -1.28861        0.74398
O         -0.10189       -1.56493        1.88303
O         -1.10210       -2.13717        0.06896
H         -1.21725       -2.80894        0.76210
13
acq.gzmat
C          0.00000        0.00000        0.00000
H          1.09300        0.00000        0.00000
N         -0.47961        0.00000       -1.41207
H         -1.11941        0.78490       -1.54020
H          0.32349        0.09623       -2.03004
C         -0.49584        1.26211        0.72868
H         -1.58789        1.28919        0.74431
H         -0.13407        1.27425        1.75947
H         -0.13407        2.16087        0.22380
C         -0.39425       -1.28861        0.74398
O         -0.10189       -1.56493        1.88303
O         -1.10210       -2.13717        0.06896
H         -1.27514       -1.58686       -0.71347
13
acq.gzmat
C          0.00000        0.00000        0.00000
H          1.09300        0.00000        0.00000
N         -0.47961        0.00000       -1.41207
H          0.16614       -0.55307       -1.97683
H         -1.41125       -0.40907       -1.44084
C         -0.49584        1.26211        0.72868
H         -1.58789        1.28919        0.74431
H         -0.13407        1.27425        1.75947
H         -0.13407        2.16087        0.22380
C         -0.39425       -1.28861        0.74398
O         -0.10189       -1.56493        1.88303
O         -1.10210       -2.13717        0.06896
H         -0.97926       -2.91235        0.64254
13
acq.gzmat
C          0.00000        0.00000        0.00000
H          1.09300        0.00000        0.00000
N         -0.47961        0.00000       -1.41207
H         -0.66592       -0.96307       -1.69423
H         -1.33167        0.55407       -1.46787
C         -0.49584        1.26211        0.72868
H         -1.58789        1.28919        0.74431
H         -0.13407        1.27425        1.75947
H         -0.13407        2.16087        0.22380
C         -0.39425       -1.28861        0.74398
O         -0.10189       -1.56493        1.88303
O         -1.10210       -2.13717        0.06896
H         -0.98808       -2.90949        0.64818
13
acq.gzmat
C          0.00000        0.00000        0.00000
H          1.09300        0.00000        0.00000
N         -0.47961        0.00000       -1.41207
H         -1.21156        0.70477       -1.50890
H          0.30392        0.22021       -2.02339
C         -0.49584        1.26211        0.72868
H         -1.58789        1.28919        0.74431
H         -0.13407        1.27425        1.75947
H         -0.13407        2.16087        0.22380
C         -0.39425       -1.28861        0.74398
O         -0.10189       -1.56493        1.88303
O         -1.10210       -2.13717        0.06896
H         -1.10992       -1.66930       -0.78310
13
acq.gzmat
C          0.00000        0.00000        0.00000
H          1.09300        0.00000        0.00000
N         -0.47961        0.00000       -1.41207
H         -1.31643        0.58122       -1.47328
H          0.25519        0.37742       -2.00684
C         -0.49584        1.26211        0.72868
H         -1.58789        1.28919        0.74431
H         -0.13407        1.27425        1.75947
H         -0.13407        2.16087        0.22380
C         -0.39425       -1.28861        0.74398
O         -0.10189       -1.56493        1.88303
O         -1.10210       -2.13717        0.06896
H         -1.15928       -1.64202       -0.76562
13
acq.gzmat
C          0.00000        0.00000        0.00000
H          1.09300        0.00000        0.00000
N         -0.47961        0.00000       -1.41207
H         -1.31721        0.58012       -1.47301
H          0.25468        0.37868       -2.00667
C         -0.49584        1.26211        0.72868
H         -1.58789        1.28919        0.74431
H         -0.13407        1.27425        1.75947
H         -0.13407        2.16087        0.22380
C         -0.39425       -1.28861        0.74398
O         -0.10189       -1.56493        1.88303
O         -1.10210       -2.13717        0.06896
H         -1.00743       -1.73326       -0.81017
13
acq.gzmat
C          0.00000        0.00000        0.00000
H          1.09300        0.00000        0.00000
N         -0.47961        0.00000       -1.41207
H         -1.02341        0.84869       -1.57280
H          0.32779       -0.02312       -2.03150
C         -0.49584        1.26211        0.72868
H         -1.58789        1.28919        0.74431
H         -0.13407        1.27425        1.75947
H         -0.13407        2.16087        0.22380
C         -0.39425       -1.28861        0.74398
O         -0.10189       -1.56493        1.88303
O         -1.10210       -2.13717        0.06896
H         -1.16327       -1.63992       -0.76409
13
acq.gzmat
C          0.00000        0.00000        0.00000
H          1.09300        0.00000        0.00000
N         -0.47961        0.00000       -1.41207
H         -1.13565        0.77227       -1.53468
H          0.32127        0.11733       -2.02929
C         -0.49584        1.26211        0.72868
H         -1.58789        1.28919        0.74431
H         -0.13407        1.27425        1.75947
H         -0.13407        2.16087        0.22380
C         -0.39425       -1.28861        0.74398
O         -0.10189       -1.56493        1.88303
O         -1.10210       -2.13717        0.06896
H         -0.93483       -2.92555        0.61253
13
acq.gzmat
C          0.00000        0.00000        0.00000
H          1.09300        0.00000        0.00000
N         -0.47961        0.00000       -1.41207
H         -1.07623        0.81577       -1.55486
H          0.32721        0.04146       -2.03130
C         -0.49584        1.26211        0.72868
H         -1.58789        1.28919        0.74431
H         -0.13407        1.27425        1.75947
H         -0.13407        2.16087        0.22380
C         -0.39425       -1.28861        0.74398
O         -0.10189       -1.56493        1.88303
O         -1.10210       -2.13717        0.06896
H         -1.11832       -1.66450       -0.78033
13
acq.gzmat
C          0.00000        0.00000        0.00000
H          1.09300        0.00000        0.00000
N         -0.47961        0.00000       -1.41207
H         -1.08630        0.80891       -1.55144
H          0.32662        0.05406       -2.03110
C         -0.49584        1.26211        0.72868
H         -1.58789        1.28919        0.74431
H         -0.13407        1.27425        1.75947
H         -0.13407        2.16087        0.22380
C         -0.39425       -1.28861        0.74398
O         -0.10189       -1.56493        1.88303
O         -1.10210       -2.13717        0.06896
H         -1.15183       -1.64599       -0.76845
13
acq.gzmat
C          0.00000        0.00000        0.00000
H          1.09300        0.00000        0.00000
N         -0.47961        0.00000       -1.41207
H         -0.19546       -0.87509       -1.85402
H         -1.49426        0.08121       -1.41264
C         -0.49584        1.26211        0.72868
H         -1.58789        1.28919        0.74431
H         -0.13407        1.27425        1.75947
H         -0.13407        2.16087        0.22380
C         -0.39425       -1.28861        0.74398
O         -0.10189       -1.56493        1.88303
O         -1.10210       -2.13717        0.06896
H         -0.77210       -1.92196       -0.81973
13
acq.gzmat
C          0.00000        0.00000        0.00000
H          1.09300        0.00000        0.00000
N         -0.47961        0.00000       -1.41207
H         -1.18055       -0.73416       -1.51943
H         -0.88797        0.90924       -1.61857
C         -0.49584        1.26211        0.72868
H         -1.58789        1.28919        0.74431
H         -0.13407        1.27425        1.75947
H         -0.13407        2.16087        0.22380
C         -0.39425       -1.28861        0.74398
O         -0.10189       -1.56493        1.88303
O         -1.10210       -2.13717        0.06896
H         -0.38380       -2.54524       -0.44339
13
acq.gzmat
C          0.00000        0.00000        0.00000
H          1.09300        0.00000        0.00000
N         -0.47961        0.00000       -1.41207
H         -0.82214        0.93382       -1.64117
H          0.29705       -0.24909       -2.02106
C         -0.49584        1.26211        0.72868
H         -1.58789        1.28919        0.74431
H         -0.13407        1.27425        1.75947
H         -0.13407        2.16087        0.22380
C         -0.39425       -1.28861        0.74398
O         -0.10189       -1.56493        1.88303
O         -1.10210       -2.13717        0.06896
H         -1.35428       -2.72534        0.80070
13
acq.gzmat
C          0.00000        0.00000        0.00000
H          1.09300        0.00000        0.00000
N         -0.47961        0.00000       -1.41207
H         -0.63414       -0.96547       -1.70502
H         -1.34947        0.52629       -1.46182
C         -0.49584        1.26211        0.72868
H         -1.58789        1.28919        0.74431
H         -0.13407        1.27425        1.75947
H         -0.13407        2.16087        0.22380
C         -0.39425       -1.28861        0.74398
O         -0.10189       -1.56493        1.88303
O         -1.10210       -2.13717        0.06896
H         -1.71391       -1.50922       -0.35096
13
acq.gzmat
C          0.00000        0.00000        0.00000
H          1.09300        0.00000        0.00000
N         -0.47961        0.00000       -1.41207
H          0.00368        0.74067       -1.92165
H         -0.27254       -0.90586       -1.82760
C         -0.49584        1.26211        0.72868
H         -1.58789        1.28919        0.74431
H         -0.13407        1.27425        1.75947
H         -0.13407        2.16087        0.22380
C         -0.39425       -1.28861        0.74398
O         -0.10189       -1.56493        1.88303
O         -1.10210       -2.13717        0.06896
H         -1.98009       -1.75569        0.23800
13
acq.gzmat
C          0.00000        0.00000        0.00000
H          1.09300        0.00000        0.00000
N         -0.47961        0.00000       -1.41207
H         -1.40564       -0.42819       -1.44298
H         -0.52560        0.96197       -1.74165
C         -0.49584        1.26211        0.72868
H         -1.58789        1.28919        0.74431
H         -0.13407        1.27425        1.75947
H         -0.13407        2.16087        0.22380
C         -0.39425       -1.28861        0.74398
O         -0.10189       -1.56493        1.88303
O         -1.10210       -2.13717        0.06896
H         -1.98132       -1.76399        0.24974
13
acq.gzmat
C          0.00000        0.00000        0.00000
H          1.09300        0.00000        0.00000
N         -0.47961        0.00000       -1.41207
H         -0.22974        0.89120       -1.84237
H         -0.03311       -0.76805       -1.90892
C         -0.49584        1.26211        0.72868
H         -1.58789        1.28919        0.74431
H         -0.13407        1.27425        1.75947
H         -0.13407        2.16087        0.22380
C         -0.39425       -1.28861        0.74398
O         -0.10189       -1.56493        1.88303
O         -1.10210       -2.13717        0.06896
H         -0.40648       -2.79255       -0.10871
13
acq.gzmat
C          0.00000        0.00000        0.00000
H          1.09300        0.00000        0.00000
N         -0.47961        0.00000       -1.41207
H          0.23986       -0.41991       -2.00187
H         -1.33914       -0.54267       -1.46533
C         -0.49584        1.26211        0.72868
H         -1.58789        1.28919        0.74431
H         -0.13407        1.27425        1.75947
H         -0.13407        2.16087        0.22380
C         -0.39425       -1.28861        0.74398
O         -0.10189       -1.56493        1.88303
O         -1.10210       -2.13717        0.06896
H         -0.38062       -2.56374       -0.42347
13
acq.gzmat
C          0.00000        0.00000        0.00000
H          1.09300        0.00000        0.00000
N         -0.47961        0.00000       -1.41207
H         -1.50018        0.01626       -1.41087
H         -0.11511        0.82662       -1.88107
C         -0.49584        1.26211        0.72868
H         -1.58789        1.28919        0.74431
H         -0.13407        1.27425        1.75947
H         -0.13407        2.16087        0.22380
C         -0.39425       -1.28861        0.74398
O         -0.10189       -1.56493        1.88303
O         -1.10210       -2.13717        0.06896
H         -0.40907       -2.79770       -0.09952
13
acq.gzmat
C          0.00000        0.00000        0.00000
H          1.09300        0.00000        0.00000
N         -0.47961        0.00000       -1.41207
H         -1.28597        0.62169       -1.48363
H          0.27309        0.32947       -2.01292
C         -0.49584        1.26211        0.72868
H         -1.58789        1.28919        0.74431
H         -0.13407        1.27425        1.75947
H         -0.13407        2.16087        0.22380
C         -0.39425       -1.28861        0.74398
O         -0.10189       -1.56493        1.88303
O         -1.10210       -2.13717        0.06896
H         -1.96907       -1.94501        0.46445
13
acq.gzmat
C          0.00000        0.00000        0.00000
H          1.09300        0.00000        0.00000
N         -0.47961        0.00000       -1.41207
H          0.04882       -0.69789       -1.93699
H         -1.47117       -0.22989       -1.42048
C         -0.49584        1.26211        0.72868
H         -1.58789        1.28919        0.74431
H         -0.13407        1.27425        1.75947
H         -0.13407        2.16087        0.22380
C         -0.39425       -1.28861        0.74398
O         -0.10189       -1.56493        1.88303
O         -1.10210       -2.13717        0.06896
H         -1.94957       -1.66132        0.08738
13
acq.gzmat
C          0.00000        0.00000        0.00000
H          1.09300        0.00000        0.00000
N         -0.47961        0.00000       -1.41207
H         -0.33032       -0.92877       -1.80821
H         -1.47093        0.23095       -1.42057
C         -0.49584        1.26211        0.72868
H         -1.58789        1.28919        0.74431
H         -0.13407        1.27425        1.75947
H         -0.13407        2.16087        0.22380
C         -0.39425       -1.28861        0.74398
O         -0.10189       -1.56493        1.88303
O         -1.10210       -2.13717        0.06896
H         -0.40117       -2.78105       -0.12874
13
acq.gzmat
C          0.00000        0.00000        0.00000
H          1.09300        0.00000        0.00000
N         -0.47961        0.00000       -1.41207
H          0.32738        0.08239       -2.03160
H         -0.97210       -0.87288       -1.58999
C         -0.49584        1.26211        0.72868
H         -1.58789        1.28919        0.74431
H         -0.13407        1.27425        1.75947
H         -0.13407        2.16087        0.22380
C         -0.39425       -1.28861        0.74398
O         -0.10189       -1.56493        1.88303
O         -1.10210       -2.13717        0.06896
H         -0.93266       -1.78646       -0.82170
13
acq.gzmat
C          0.00000        0.00000        0.00000
H          1.09300        0.00000        0.00000
N         -0.47961        0.00000       -1.41207
H         -0.96595       -0.87910       -1.59232
H         -1.11345        0.78581       -1.54199
C         -0.49584        1.26211        0.72868
H         -1.58789        1.28919        0.74431
H         -0.13407        1.27425        1.75947
H         -0.13407        2.16087        0.22380
C         -0.39425       -1.28861        0.74398
O         -0.10189       -1.56493        1.88303
O         -1.10210       -2.13717        0.06896
H         -0.74553       -1.94765       -0.81530
13
acq.gzmat
C          0.00000        0.00000        0.00000
H          1.09300        0.00000        0.00000
N         -0.47961        0.00000       -1.41207
H          0.02752       -0.71879       -1.92975
H         -1.47764       -0.20004       -1.41829
C         -0.49584        1.26211        0.72868
H         -1.58789        1.28919        0.74431
H         -0.13407        1.27425        1.75947
H         -0.13407        2.16087        0.22380
C         -0.39425       -1.28861        0.74398
O         -0.10189       -1.56493        1.88303
O         -1.10210       -2.13717        0.06896
H         -1.41168       -1.53827       -0.63136
13
acq.gzmat
C          0.00000        0.00000        0.00000
H          1.09300        0.00000        0.00000
N         -0.47961        0.00000       -1.41207
H          0.32724        0.08412       -2.03155
H         -0.97062       -0.87361       -1.59050
C         -0.49584        1.26211        0.72868
H         -1.58789        1.28919        0.74431
H         -0.13407        1.27425        1.75947
H         -0.13407        2.16087        0.22380
C         -0.39425       -1.28861        0.74398
O         -0.10189       -1.56493        1.88303
O         -1.10210       -2.13717        0.06896
H         -1.98216       -1.77055        0.25886
13
acq.gzmat
C          0.00000        0.00000        0.00000
H          1.09300        0.00000        0.00000
N         -0.47961        0.00000       -1.41207
H          0.30882        0.21016       -2.02529
H         -0.85838       -0.91965       -1.62862
C         -0.49584        1.26211        0.72868
H         -1.58789        1.28919        0.74431
H         -0.13407        1.27425        1.75947
H         -0.13407        2.16087        0.22380
C         -0.39425       -1.28861        0.74398
O         -0.10189       -1.56493        1.88303
O         -1.10210       -2.13717        0.06896
H         -0.44263       -2.84791       -0.00122
13
acq.gzmat
C          0.00000        0.00000        0.00000
H          1.09300        0.00000        0.00000
N         -0.47961        0.00000       -1.41207
H         -0.52045        0.96448       -1.74363
H          0.17173       -0.53949       -1.97850
C         -0.49584        1.26211        0.72868
H         -1.58789        1.28919        0.74431
H         -0.13407        1.27425        1.75947
H         -0.13407        2.16087        0.22380
C         -0.39425       -1.28861        0.74398
O         -0.10189       -1.56493        1.88303
O         -1.10210       -2.13717        0.06896
H         -1.90996       -2.10926        0.60893
13
acq.gzmat
C          0.00000        0.00000        0.00000
H          1.09300        0.00000        0.00000
N         -0.47961        0.00000       -1.41207
H         -1.48639       -0.16794       -1.41555
H         -0.27257        0.90587       -1.82759
C         -0.49584        1.26211        0.72868
H         -1.58789        1.28919        0.74431
H         -0.13407        1.27425        1.75947
H         -0.13407        2.16087        0.22380
C         -0.39425       -1.28861        0.74398
O         -0.10189       -1.56493        1.88303
O         -1.10210       -2.13717        0.06896
H         -1.75346       -1.51692       -0.29980
13
acq.gzmat
C          0.00000        0.00000        0.00000
H          1.09300        0.00000        0.00000
N         -0.47961        0.00000       -1.41207
H         -0.93453        0.89355       -1.60299
H          0.32016       -0.12652       -2.02891
C         -0.49584        1.26211        0.72868
H         -1.58789        1.28919        0.74431
H         -0.13407        1.27425        1.75947
H         -0.13407        2.16087        0.22380
C         -0.39425       -1.28861        0.74398
O         -0.10189       -1.56493        1.88303
O         -1.10210       -2.13717        0.06896
H         -0.44417       -2.84971        0.00267
13
acq.gzmat
C          0.00000        0.00000        0.00000
H          1.09300        0.00000        0.00000
N         -0.47961        0.00000       -1.41207
H         -0.87907       -0.91557       -1.62183
H         -1.18658        0.72476       -1.51715
C         -0.49584        1.26211        0.72868
H         -1.58789        1.28919        0.74431
H         -0.13407        1.27425        1.75947
H         -0.13407        2.16087        0.22380
C         -0.39425       -1.28861        0.74398
O         -0.10189       -1.56493        1.88303
O         -1.10210       -2.13717        0.06896
H         -1.97762       -1.74200        0.21821
13
acq.gzmat
C          0.00000        0.00000        0.00000
H          1.09300        0.00000        0.00000
N         -0.47961        0.00000       -1.41207
H         -1.49988        0.02950       -1.41097
H         -0.10443        0.81975       -1.88470
C         -0.49584        1.26211        0.72868
H         -1.58789        1.28919        0.74431
H         -0.13407        1.27425        1.75947
H         -0.13407        2.16087        0.22380
C         -0.39425       -1.28861        0.74398
O         -0.10189       -1.56493        1.88303
O         -1.10210       -2.13717        0.06896
H         -1.86377       -2.19641        0.67006
13
acq.gzmat
C          0.00000        0.00000        0.00000
H          1.09300        0.00000        0.00000
N         -0.47961        0.00000       -1.41207
H         -1.46542       -0.26439       -1.42268
H         -0.36189        0.93483       -1.79725
C         -0.49584        1.26211        0.72868
H         -1.58789        1.28919        0.74431
H         -0.13407        1.27425        1.75947
H         -0.13407        2.16087        0.22380
C         -0.39425       -1.28861        0.74398
O         -0.10189       -1.56493        1.88303
O         -1.10210       -2.13717        0.06896
H         -0.48561       -2.28105       -0.66875
13
acq.gzmat
C          0.00000        0.00000        0.00000
H          1.09300        0.00000        0.00000
N         -0.47961        0.00000       -1.41207
H         -1.10753       -0.79377       -1.54423
H         -0.97311        0.87238       -1.58965
C         -0.49584        1.26211        0.72868
H         -1.58789        1.28919        0.74431
H         -0.13407        1.27425        1.75947
H         -0.13407        2.16087        0.22380
C         -0.39425       -1.28861        0.74398
O         -0.10189       -1.56493        1.88303
O         -1.10210       -2.13717        0.06896
H         -0.53611       -2.91880        0.18593
13
acq.gzmat
C          0.00000        0.00000        0.00000
H          1.09300        0.00000        0.00000
N         -0.47961        0.00000       -1.41207
H         -0.23497       -0.89350       -1.84060
H         -1.48963        0.12641       -1.41422
C         -0.49584        1.26211        0.72868
H         -1.58789        1.28919        0.74431
H         -0.13407        1.27425        1.75947
H         -0.13407        2.16087        0.22380
C         -0.39425       -1.28861        0.74398
O         -0.10189       -1.56493        1.88303
O         -1.10210       -2.13717        0.06896
H         -1.95691       -1.98956        0.50770
13
acq.gzmat
C          0.00000        0.00000        0.00000
H          1.09300        0.00000        0.00000
N         -0.47961        0.00000       -1.41207
H         -1.17329       -0.74066       -1.52190
H         -0.89690        0.90586       -1.61553
C         -0.49584        1.26211        0.72868
H         -1.58789        1.28919        0.74431
H         -0.13407        1.27425        1.75947
H         -0.13407        2.16087        0.22380
C         -0.39425       -1.28861        0.74398
O         -0.10189       -1.56493        1.88303
O         -1.10210       -2.13717        0.06896
H         -1.37487       -1.54955       -0.65579
