13
acq.gzmat
C          0.00000        0.00000        0.00000
H          1.09300        0.00000        0.00000
N         -0.47961        0.00000       -1.41207
H         -0.94612        0.88839       -1.59906
H          0.32172       -0.11339       -2.02944
C         -0.49584        1.26211        0.72868
H         -1.58789        1.28919        0.74431
H         -0.13407        1.27425        1.75947
H         -0.13407        2.16087        0.22380
C         -0.39425       -1.28861        0.74398
O         -0.10189       -1.56493        1.88303
O         -1.10210       -2.13717        0.06896
H         -1.20598       -1.61829       -0.74648
13
acq.gzmat
C          0.00000        0.00000        0.00000
H          1.09300        0.00000        0.00000
N         -0.47961        0.00000       -1.41207
H         -0.31699       -0.92458       -1.81274
H         -1.47415        0.21670       -1.41947
C         -0.49584        1.26211        0.72868
H         -1.58789        1.28919        0.74431
H         -0.13407        1.27425        1.75947
H         -0.13407        2.16087        0.22380
C         -0.39425       -1.28861        0.74398
O         -0.10189       -1.56493        1.88303
O         -1.10210       -2.13717        0.06896
H         -1.32776       -2.74292        0.79499
13
acq.gzmat
C          0.00000        0.00000        0.00000
H          1.09300        0.00000        0.00000
N         -0.47961        0.00000       -1.41207
H          0.08645        0.65748       -1.94977
H         -0.38181       -0.93987       -1.79049
C         -0.49584        1.26211        0.72868
H         -1.58789        1.28919        0.74431
H         -0.13407        1.27425        1.75947
H         -0.13407        2.16087        0.22380
C         -0.39425       -1.28861        0.74398
O         -0.10189       -1.56493        1.88303
O         -1.10210       -2.13717        0.06896
H         -1.35593       -2.72422        0.80103
13
acq.gzmat
C          0.00000        0.00000        0.00000
H          1.09300        0.00000        0.00000
N         -0.47961        0.00000       -1.41207
H         -0.19528        0.87499       -1.85408
H         -0.06354       -0.79140       -1.89859
C         -0.49584        1.26211        0.72868
H         -1.58789        1.28919        0.74431
H         -0.13407        1.27425        1.75947
H         -0.13407        2.16087        0.22380
C         -0.39425       -1.28861        0.74398
O         -0.10189       -1.56493        1.88303
O         -1.10210       -2.13717        0.06896
H         -1.79718       -1.53037       -0.23705
13
acq.gzmat
C          0.00000        0.00000        0.00000
H          1.09300        0.00000        0.00000
N         -0.47961        0.00000       -1.41207
H         -1.38816       -0.46370       -1.44892
H         -0.56335        0.96373       -1.72883
C         -0.49584        1.26211        0.72868
H         -1.58789        1.28919        0.74431
H         -0.13407        1.27425        1.75947
H         -0.13407        2.16087        0.22380
C         -0.39425       -1.28861        0.74398
O         -0.10189       -1.56493        1.88303
O         -1.10210       -2.13717        0.06896
H         -1.45005       -2.65590        0.81383
13
acq.gzmat
C          0.00000        0.00000        0.00000
H          1.09300        0.00000        0.00000
N         -0.47961        0.00000       -1.41207
H         -1.49329        0.11947       -1.41321
H         -0.03416        0.76889       -1.90857
C         -0.49584        1.26211        0.72868
H         -1.58789        1.28919        0.74431
H         -0.13407        1.27425        1.75947
H         -0.13407        2.16087        0.22380
C         -0.39425       -1.28861        0.74398
O         -0.10189       -1.56493        1.88303
O         -1.10210       -2.13717        0.06896
H         -0.93501       -1.78470       -0.82144
13
acq.gzmat
C          0.00000        0.00000        0.00000
H          1.09300        0.00000        0.00000
N         -0.47961        0.00000       -1.41207
H         -0.65986        0.96362       -1.69628
H          0.24052       -0.41193       -2.00186
C         -0.49584        1.26211        0.72868
H         -1.58789        1.28919        0.74431
H         -0.13407        1.27425        1.75947
H         -0.13407        2.16087        0.22380
C         -0.39425       -1.28861        0.74398
O         -0.10189       -1.56493        1.88303
O         -1.10210       -2.13717        0.06896
H         -0.65241       -2.04694       -0.78813
13
acq.gzmat
C          0.00000        0.00000        0.00000
H          1.09300        0.00000        0.00000
N         -0.47961        0.00000       -1.41207
H         -1.43449        0.35997       -1.43318
H          0.13316        0.59538       -1.96539
C         -0.49584        1.26211        0.72868
H         -1.58789        1.28919        0.74431
H         -0.13407        1.27425        1.75947
H         -0.13407        2.16087        0.22380
C         -0.39425       -1.28861        0.74398
O         -0.10189       -1.56493        1.88303
O         -1.10210       -2.13717        0.06896
H         -1.70143       -1.50753       -0.36617
13
acq.gzmat
C          0.00000        0.00000        0.00000
H          1.09300        0.00000        0.00000
N         -0.47961        0.00000       -1.41207
H         -0.18647       -0.87056       -1.85707
H         -1.49505        0.07075       -1.41238
C         -0.49584        1.26211        0.72868
H         -1.58789        1.28919        0.74431
H         -0.13407        1.27425        1.75947
H         -0.13407        2.16087        0.22380
C         -0.39425       -1.28861        0.74398
O         -0.10189       -1.56493        1.88303
O         -1.10210       -2.13717        0.06896
H         -1.29155       -1.58007       -0.70481
13
acq.gzmat
C          0.00000        0.00000        0.00000
H          1.09300        0.00000        0.00000
N         -0.47961        0.00000       -1.41207
H          0.30896       -0.20947       -2.02534
H         -1.20154       -0.71059       -1.51207
C         -0.49584        1.26211        0.72868
H         -1.58789        1.28919        0.74431
H         -0.13407        1.27425        1.75947
H         -0.13407        2.16087        0.22380
C         -0.39425       -1.28861        0.74398
O         -0.10189       -1.56493        1.88303
O         -1.10210       -2.13717        0.06896
H         -1.07642       -2.87661        0.69948
13
acq.gzmat
C          0.00000        0.00000        0.00000
H          1.09300        0.00000        0.00000
N         -0.47961        0.00000       -1.41207
H         -0.82805        0.93212       -1.63916
H          0.29861       -0.24285       -2.02159
C         -0.49584        1.26211        0.72868
H         -1.58789        1.28919        0.74431
H         -0.13407        1.27425        1.75947
H         -0.13407        2.16087        0.22380
C         -0.39425       -1.28861        0.74398
O         -0.10189       -1.56493        1.88303
O         -1.10210       -2.13717        0.06896
H         -1.60461       -2.52155        0.80701
13
acq.gzmat
C          0.00000        0.00000        0.00000
H          1.09300        0.00000        0.00000
N         -0.47961        0.00000       -1.41207
H         -1.24193       -0.67321       -1.49858
H         -0.80754        0.93483       -1.64589
C         -0.49584        1.26211        0.72868
H         -1.58789        1.28919        0.74431
H         -0.13407        1.27425        1.75947
H         -0.13407        2.16087        0.22380
C         -0.39425       -1.28861        0.74398
O         -0.10189       -1.56493        1.88303
O         -1.10210       -2.13717        0.06896
H         -0.66671       -2.95371        0.36676
13
acq.gzmat
C          0.00000        0.00000        0.00000
H          1.09300        0.00000        0.00000
N         -0.47961        0.00000       -1.41207
H          0.33051        0.02015       -2.03266
H         -1.02454       -0.84471       -1.57218
C         -0.49584        1.26211        0.72868
H         -1.58789        1.28919        0.74431
H         -0.13407        1.27425        1.75947
H         -0.13407        2.16087        0.22380
C         -0.39425       -1.28861        0.74398
O         -0.10189       -1.56493        1.88303
O         -1.10210       -2.13717        0.06896
H         -1.70525       -2.41517        0.77883
13
acq.gzmat
C          0.00000        0.00000        0.00000
H          1.09300        0.00000        0.00000
N         -0.47961        0.00000       -1.41207
H         -0.10664        0.82452       -1.88418
H         -0.14899       -0.84706       -1.86956
C         -0.49584        1.26211        0.72868
H         -1.58789        1.28919        0.74431
H         -0.13407        1.27425        1.75947
H         -0.13407        2.16087        0.22380
C         -0.39425       -1.28861        0.74398
O         -0.10189       -1.56493        1.88303
O         -1.10210       -2.13717        0.06896
H         -0.77922       -2.95413        0.48527
13
acq.gzmat
C          0.00000        0.00000        0.00000
H          1.09300        0.00000        0.00000
N         -0.47961        0.00000       -1.41207
H         -0.43107        0.95315       -1.77399
H          0.11791       -0.61534       -1.96021
C         -0.49584        1.26211        0.72868
H         -1.58789        1.28919        0.74431
H         -0.13407        1.27425        1.75947
H         -0.13407        2.16087        0.22380
C         -0.39425       -1.28861        0.74398
O         -0.10189       -1.56493        1.88303
O         -1.10210       -2.13717        0.06896
H         -1.24901       -1.59821       -0.72660
13
acq.gzmat
C          0.00000        0.00000        0.00000
H          1.09300        0.00000        0.00000
N         -0.47961        0.00000       -1.41207
H         -1.29295        0.61280       -1.48126
H          0.26930        0.34027       -2.01163
C         -0.49584        1.26211        0.72868
H         -1.58789        1.28919        0.74431
H         -0.13407        1.27425        1.75947
H         -0.13407        2.16087        0.22380
C         -0.39425       -1.28861        0.74398
O         -0.10189       -1.56493        1.88303
O         -1.10210       -2.13717        0.06896
H         -1.05260       -1.70383       -0.79980
13
acq.gzmat
C          0.00000        0.00000        0.00000
H          1.09300        0.00000        0.00000
N         -0.47961        0.00000       -1.41207
H         -0.05390       -0.78770       -1.90210
H         -1.49339       -0.09145       -1.41294
C         -0.49584        1.26211        0.72868
H         -1.58789        1.28919        0.74431
H         -0.13407        1.27425        1.75947
H         -0.13407        2.16087        0.22380
C         -0.39425       -1.28861        0.74398
O         -0.10189       -1.56493        1.88303
O         -1.10210       -2.13717        0.06896
H         -0.93202       -2.92631        0.61054
13
acq.gzmat
C          0.00000        0.00000        0.00000
H          1.09300        0.00000        0.00000
N         -0.47961        0.00000       -1.41207
H          0.08546       -0.65862       -1.94943
H         -1.45733       -0.28288       -1.42519
C         -0.49584        1.26211        0.72868
H         -1.58789        1.28919        0.74431
H         -0.13407        1.27425        1.75947
H         -0.13407        2.16087        0.22380
C         -0.39425       -1.28861        0.74398
O         -0.10189       -1.56493        1.88303
O         -1.10210       -2.13717        0.06896
H         -1.37719       -2.70959        0.80492
13
acq.gzmat
C          0.00000        0.00000        0.00000
H          1.09300        0.00000        0.00000
N         -0.47961        0.00000       -1.41207
H         -0.95257        0.88543       -1.59686
H          0.32252       -0.10603       -2.02971
C         -0.49584        1.26211        0.72868
H         -1.58789        1.28919        0.74431
H         -0.13407        1.27425        1.75947
H         -0.13407        2.16087        0.22380
C         -0.39425       -1.28861        0.74398
O         -0.10189       -1.56493        1.88303
O         -1.10210       -2.13717        0.06896
H         -1.06468       -1.69629       -0.79660
13
acq.gzmat
C          0.00000        0.00000        0.00000
H          1.09300        0.00000        0.00000
N         -0.47961        0.00000       -1.41207
H         -0.75132        0.95075       -1.66522
H          0.27559       -0.32211       -2.01377
C         -0.49584        1.26211        0.72868
H         -1.58789        1.28919        0.74431
H         -0.13407        1.27425        1.75947
H         -0.13407        2.16087        0.22380
C         -0.39425       -1.28861        0.74398
O         -0.10189       -1.56493        1.88303
O         -1.10210       -2.13717        0.06896
H         -1.29715       -1.57780       -0.70178
13
acq.gzmat
C          0.00000        0.00000        0.00000
H          1.09300        0.00000        0.00000
N         -0.47961        0.00000       -1.41207
H         -1.47195        0.23879       -1.42046
H          0.05275        0.68995       -1.93808
C         -0.49584        1.26211        0.72868
H         -1.58789        1.28919        0.74431
H         -0.13407        1.27425        1.75947
H         -0.13407        2.16087        0.22380
C         -0.39425       -1.28861        0.74398
O         -0.10189       -1.56493        1.88303
O         -1.10210       -2.13717        0.06896
H         -1.40266       -2.69146        0.80883
13
acq.gzmat
C          0.00000        0.00000        0.00000
H          1.09300        0.00000        0.00000
N         -0.47961        0.00000       -1.41207
H         -1.11137        0.79094       -1.54293
H          0.32442        0.08588       -2.03036
C         -0.49584        1.26211        0.72868
H         -1.58789        1.28919        0.74431
H         -0.13407        1.27425        1.75947
H         -0.13407        2.16087        0.22380
C         -0.39425       -1.28861        0.74398
O         -0.10189       -1.56493        1.88303
O         -1.10210       -2.13717        0.06896
H         -1.15069       -1.64661       -0.76887
13
acq.gzmat
C          0.00000        0.00000        0.00000
H          1.09300        0.00000        0.00000
N         -0.47961        0.00000       -1.41207
H         -1.31202        0.58736       -1.47478
H          0.25801        0.37034       -2.00780
C         -0.49584        1.26211        0.72868
H         -1.58789        1.28919        0.74431
H         -0.13407        1.27425        1.75947
H         -0.13407        2.16087        0.22380
C         -0.39425       -1.28861        0.74398
O         -0.10189       -1.56493        1.88303
O         -1.10210       -2.13717        0.06896
H         -1.15493       -1.64434       -0.76728
13
acq.gzmat
C          0.00000        0.00000        0.00000
H          1.09300        0.00000        0.00000
N         -0.47961        0.00000       -1.41207
H         -1.07031        0.81972       -1.55688
H          0.32748        0.03409       -2.03140
C         -0.49584        1.26211        0.72868
H         -1.58789        1.28919        0.74431
H         -0.13407        1.27425        1.75947
H         -0.13407        2.16087        0.22380
C         -0.39425       -1.28861        0.74398
O         -0.10189       -1.56493        1.88303
O         -1.10210       -2.13717        0.06896
H         -1.14968       -1.64715       -0.76925
13
acq.gzmat
C          0.00000        0.00000        0.00000
H          1.09300        0.00000        0.00000
N         -0.47961        0.00000       -1.41207
H         -0.72784       -0.95500       -1.67319
H         -1.29420        0.60651       -1.48059
C         -0.49584        1.26211        0.72868
H         -1.58789        1.28919        0.74431
H         -0.13407        1.27425        1.75947
H         -0.13407        2.16087        0.22380
C         -0.39425       -1.28861        0.74398
O         -0.10189       -1.56493        1.88303
O         -1.10210       -2.13717        0.06896
H         -1.97880       -1.74811        0.22713
13
acq.gzmat
C          0.00000        0.00000        0.00000
H          1.09300        0.00000        0.00000
N         -0.47961        0.00000       -1.41207
H         -0.69958       -0.95925       -1.68279
H         -1.31176        0.58286       -1.47463
C         -0.49584        1.26211        0.72868
H         -1.58789        1.28919        0.74431
H         -0.13407        1.27425        1.75947
H         -0.13407        2.16087        0.22380
C         -0.39425       -1.28861        0.74398
O         -0.10189       -1.56493        1.88303
O         -1.10210       -2.13717        0.06896
H         -0.43224       -2.38906       -0.58893
13
acq.gzmat
C          0.00000        0.00000        0.00000
H          1.09300        0.00000        0.00000
N         -0.47961        0.00000       -1.41207
H          0.30068       -0.24559       -2.02253
H         -1.22694       -0.68504       -1.50344
C         -0.49584        1.26211        0.72868
H         -1.58789        1.28919        0.74431
H         -0.13407        1.27425        1.75947
H         -0.13407        2.16087        0.22380
C         -0.39425       -1.28861        0.74398
O         -0.10189       -1.56493        1.88303
O         -1.10210       -2.13717        0.06896
H         -1.88733       -1.58288       -0.07650
13
acq.gzmat
C          0.00000        0.00000        0.00000
H          1.09300        0.00000        0.00000
N         -0.47961        0.00000       -1.41207
H          0.21262        0.47499       -1.99262
H         -0.59391       -0.96395       -1.71845
C         -0.49584        1.26211        0.72868
H         -1.58789        1.28919        0.74431
H         -0.13407        1.27425        1.75947
H         -0.13407        2.16087        0.22380
C         -0.39425       -1.28861        0.74398
O         -0.10189       -1.56493        1.88303
O         -1.10210       -2.13717        0.06896
H         -0.38689       -2.74038       -0.19483
13
acq.gzmat
C          0.00000        0.00000        0.00000
H          1.09300        0.00000        0.00000
N         -0.47961        0.00000       -1.41207
H         -1.46297        0.27333       -1.42351
H          0.07651        0.66453       -1.94616
C         -0.49584        1.26211        0.72868
H         -1.58789        1.28919        0.74431
H         -0.13407        1.27425        1.75947
H         -0.13407        2.16087        0.22380
C         -0.39425       -1.28861        0.74398
O         -0.10189       -1.56493        1.88303
O         -1.10210       -2.13717        0.06896
H         -0.37461       -2.65681       -0.31277
13
acq.gzmat
C          0.00000        0.00000        0.00000
H          1.09300        0.00000        0.00000
N         -0.47961        0.00000       -1.41207
H         -1.48283       -0.18803       -1.41676
H         -0.29078        0.91264       -1.82141
C         -0.49584        1.26211        0.72868
H         -1.58789        1.28919        0.74431
H         -0.13407        1.27425        1.75947
H         -0.13407        2.16087        0.22380
C         -0.39425       -1.28861        0.74398
O         -0.10189       -1.56493        1.88303
O         -1.10210       -2.13717        0.06896
H         -1.08449       -2.87323        0.70370
13
acq.gzmat
C          0.00000        0.00000        0.00000
H          1.09300        0.00000        0.00000
N         -0.47961        0.00000       -1.41207
H         -1.13229       -0.77493       -1.53582
H         -0.94536        0.88557       -1.59908
C         -0.49584        1.26211        0.72868
H         -1.58789        1.28919        0.74431
H         -0.13407        1.27425        1.75947
H         -0.13407        2.16087        0.22380
C         -0.39425       -1.28861        0.74398
O         -0.10189       -1.56493        1.88303
O         -1.10210       -2.13717        0.06896
H         -1.55298       -1.50892       -0.52009
13
acq.gzmat
C          0.00000        0.00000        0.00000
H          1.09300        0.00000        0.00000
N         -0.47961        0.00000       -1.41207
H         -1.35379        0.52468       -1.46059
H          0.22759        0.43967       -1.99747
C         -0.49584        1.26211        0.72868
H         -1.58789        1.28919        0.74431
H         -0.13407        1.27425        1.75947
H         -0.13407        2.16087        0.22380
C         -0.39425       -1.28861        0.74398
O         -0.10189       -1.56493        1.88303
O         -1.10210       -2.13717        0.06896
H         -1.96767       -1.95079        0.47025
13
acq.gzmat
C          0.00000        0.00000        0.00000
H          1.09300        0.00000        0.00000
N         -0.47961        0.00000       -1.41207
H         -0.10710        0.82482       -1.88403
H         -0.14851       -0.84679       -1.86973
C         -0.49584        1.26211        0.72868
H         -1.58789        1.28919        0.74431
H         -0.13407        1.27425        1.75947
H         -0.13407        2.16087        0.22380
C         -0.39425       -1.28861        0.74398
O         -0.10189       -1.56493        1.88303
O         -1.10210       -2.13717        0.06896
H         -1.95282       -2.00246        0.51963
13
acq.gzmat
C          0.00000        0.00000        0.00000
H          1.09300        0.00000        0.00000
N         -0.47961        0.00000       -1.41207
H          0.33052        0.01960       -2.03267
H         -1.02500       -0.84444       -1.57203
C         -0.49584        1.26211        0.72868
H         -1.58789        1.28919        0.74431
H         -0.13407        1.27425        1.75947
H         -0.13407        2.16087        0.22380
C         -0.39425       -1.28861        0.74398
O         -0.10189       -1.56493        1.88303
O         -1.10210       -2.13717        0.06896
H         -0.93803       -1.78244       -0.82111
13
acq.gzmat
C          0.00000        0.00000        0.00000
H          1.09300        0.00000        0.00000
N         -0.47961        0.00000       -1.41207
H         -1.06891        0.82064       -1.55735
H          0.32754        0.03235       -2.03142
C         -0.49584        1.26211        0.72868
H         -1.58789        1.28919        0.74431
H         -0.13407        1.27425        1.75947
H         -0.13407        2.16087        0.22380
C         -0.39425       -1.28861        0.74398
O         -0.10189       -1.56493        1.88303
O         -1.10210       -2.13717        0.06896
H         -1.16147       -1.64087       -0.76479
13
acq.gzmat
C          0.00000        0.00000        0.00000
H          1.09300        0.00000        0.00000
N         -0.47961        0.00000       -1.41207
H         -0.43491        0.95383       -1.77269
H          0.12037       -0.61218       -1.96105
C         -0.49584        1.26211        0.72868
H         -1.58789        1.28919        0.74431
H         -0.13407        1.27425        1.75947
H         -0.13407        2.16087        0.22380
C         -0.39425       -1.28861        0.74398
O         -0.10189       -1.56493        1.88303
O         -1.10210       -2.13717        0.06896
H         -1.18596       -2.82556        0.75018
13
acq.gzmat
C          0.00000        0.00000        0.00000
H          1.09300        0.00000        0.00000
N         -0.47961        0.00000       -1.41207
H         -0.27474       -0.90974       -1.82709
H         -1.48307        0.17078       -1.41644
C         -0.49584        1.26211        0.72868
H         -1.58789        1.28919        0.74431
H         -0.13407        1.27425        1.75947
H         -0.13407        2.16087        0.22380
C         -0.39425       -1.28861        0.74398
O         -0.10189       -1.56493        1.88303
O         -1.10210       -2.13717        0.06896
H         -0.40641       -2.79240       -0.10897
13
acq.gzmat
C          0.00000        0.00000        0.00000
H          1.09300        0.00000        0.00000
N         -0.47961        0.00000       -1.41207
H         -1.43325       -0.36323       -1.43360
H         -0.45874        0.95477       -1.76436
C         -0.49584        1.26211        0.72868
H         -1.58789        1.28919        0.74431
H         -0.13407        1.27425        1.75947
H         -0.13407        2.16087        0.22380
C         -0.39425       -1.28861        0.74398
O         -0.10189       -1.56493        1.88303
O         -1.10210       -2.13717        0.06896
H         -1.98276       -1.77593        0.26625
13
acq.gzmat
C          0.00000        0.00000        0.00000
H          1.09300        0.00000        0.00000
N         -0.47961        0.00000       -1.41207
H         -0.59622        0.96680       -1.71790
H          0.21140       -0.47154       -1.99197
C         -0.49584        1.26211        0.72868
H         -1.58789        1.28919        0.74431
H         -0.13407        1.27425        1.75947
H         -0.13407        2.16087        0.22380
C         -0.39425       -1.28861        0.74398
O         -0.10189       -1.56493        1.88303
O         -1.10210       -2.13717        0.06896
H         -0.39366       -2.76200       -0.16056
13
acq.gzmat
C          0.00000        0.00000        0.00000
H          1.09300        0.00000        0.00000
N         -0.47961        0.00000       -1.41207
H         -0.80914        0.93740       -1.64558
H          0.29350       -0.26273       -2.01985
C         -0.49584        1.26211        0.72868
H         -1.58789        1.28919        0.74431
H         -0.13407        1.27425        1.75947
H         -0.13407        2.16087        0.22380
C         -0.39425       -1.28861        0.74398
O         -0.10189       -1.56493        1.88303
O         -1.10210       -2.13717        0.06896
H         -1.96410       -1.69408        0.14379
13
acq.gzmat
C          0.00000        0.00000        0.00000
H          1.09300        0.00000        0.00000
N         -0.47961        0.00000       -1.41207
H         -0.00094       -0.74474       -1.92008
H         -1.48466       -0.16116       -1.41590
C         -0.49584        1.26211        0.72868
H         -1.58789        1.28919        0.74431
H         -0.13407        1.27425        1.75947
H         -0.13407        2.16087        0.22380
C         -0.39425       -1.28861        0.74398
O         -0.10189       -1.56493        1.88303
O         -1.10210       -2.13717        0.06896
H         -1.92835       -2.06804        0.57641
13
acq.gzmat
C          0.00000        0.00000        0.00000
H          1.09300        0.00000        0.00000
N         -0.47961        0.00000       -1.41207
H         -0.77190       -0.94647       -1.65823
H         -1.26526        0.64244       -1.49042
C         -0.49584        1.26211        0.72868
H         -1.58789        1.28919        0.74431
H         -0.13407        1.27425        1.75947
H         -0.13407        2.16087        0.22380
C         -0.39425       -1.28861        0.74398
O         -0.10189       -1.56493        1.88303
O         -1.10210       -2.13717        0.06896
H         -0.82797       -1.87120       -0.82496
13
acq.gzmat
C          0.00000        0.00000        0.00000
H          1.09300        0.00000        0.00000
N         -0.47961        0.00000       -1.41207
H          0.29253        0.27630       -2.01976
H         -0.79619       -0.93777       -1.64974
C         -0.49584        1.26211        0.72868
H         -1.58789        1.28919        0.74431
H         -0.13407        1.27425        1.75947
H         -0.13407        2.16087        0.22380
C         -0.39425       -1.28861        0.74398
O         -0.10189       -1.56493        1.88303
O         -1.10210       -2.13717        0.06896
H         -1.98483       -1.80959        0.31074
13
acq.gzmat
C          0.00000        0.00000        0.00000
H          1.09300        0.00000        0.00000
N         -0.47961        0.00000       -1.41207
H          0.30315        0.23546       -2.02337
H         -0.83487       -0.92709       -1.63660
C         -0.49584        1.26211        0.72868
H         -1.58789        1.28919        0.74431
H         -0.13407        1.27425        1.75947
H         -0.13407        2.16087        0.22380
C         -0.39425       -1.28861        0.74398
O         -0.10189       -1.56493        1.88303
O         -1.10210       -2.13717        0.06896
H         -1.58465       -1.50574       -0.49088
13
acq.gzmat
C          0.00000        0.00000        0.00000
H          1.09300        0.00000        0.00000
N         -0.47961        0.00000       -1.41207
H          0.31437       -0.18185       -2.02718
H         -1.18165       -0.72929       -1.51882
C         -0.49584        1.26211        0.72868
H         -1.58789        1.28919        0.74431
H         -0.13407        1.27425        1.75947
H         -0.13407        2.16087        0.22380
C         -0.39425       -1.28861        0.74398
O         -0.10189       -1.56493        1.88303
O         -1.10210       -2.13717        0.06896
H         -0.51649       -2.90858        0.15251
13
acq.gzmat
C          0.00000        0.00000        0.00000
H          1.09300        0.00000        0.00000
N         -0.47961        0.00000       -1.41207
H         -0.18242       -0.86848       -1.85845
H         -1.49537        0.06602       -1.41227
C         -0.49584        1.26211        0.72868
H         -1.58789        1.28919        0.74431
H         -0.13407        1.27425        1.75947
H         -0.13407        2.16087        0.22380
C         -0.39425       -1.28861        0.74398
O         -0.10189       -1.56493        1.88303
O         -1.10210       -2.13717        0.06896
H         -1.81093       -1.53590       -0.21568
13
acq.gzmat
C          0.00000        0.00000        0.00000
H          1.09300        0.00000        0.00000
N         -0.47961        0.00000       -1.41207
H         -1.18538       -0.72975       -1.51779
H         -0.88196        0.91145       -1.62061
C         -0.49584        1.26211        0.72868
H         -1.58789        1.28919        0.74431
H         -0.13407        1.27425        1.75947
H         -0.13407        2.16087        0.22380
C         -0.39425       -1.28861        0.74398
O         -0.10189       -1.56493        1.88303
O         -1.10210       -2.13717        0.06896
H         -0.37959       -2.70706       -0.24439
13
acq.gzmat
C          0.00000        0.00000        0.00000
H          1.09300        0.00000        0.00000
N         -0.47961        0.00000       -1.41207
H         -0.89305       -0.91042       -1.61708
H         -1.17540        0.73494       -1.52094
C         -0.49584        1.26211        0.72868
H         -1.58789        1.28919        0.74431
H         -0.13407        1.27425        1.75947
H         -0.13407        2.16087        0.22380
C         -0.39425       -1.28861        0.74398
O         -0.10189       -1.56493        1.88303
O         -1.10210       -2.13717        0.06896
H         -1.80559       -2.28698        0.72290
13
acq.gzmat
C          0.00000        0.00000        0.00000
H          1.09300        0.00000        0.00000
N         -0.47961        0.00000       -1.41207
H         -1.00309        0.86006       -1.57971
H          0.32695       -0.04732       -2.03122
C         -0.49584        1.26211        0.72868
H         -1.58789        1.28919        0.74431
H         -0.13407        1.27425        1.75947
H         -0.13407        2.16087        0.22380
C         -0.39425       -1.28861        0.74398
O         -0.10189       -1.56493        1.88303
O         -1.10210       -2.13717        0.06896
H         -0.59415       -2.94029        0.27381
13
acq.gzmat
C          0.00000        0.00000        0.00000
H          1.09300        0.00000        0.00000
N         -0.47961        0.00000       -1.41207
H          0.13704        0.59472       -1.96695
H         -0.45835       -0.95471       -1.76449
C         -0.49584        1.26211        0.72868
H         -1.58789        1.28919        0.74431
H         -0.13407        1.27425        1.75947
H         -0.13407        2.16087        0.22380
C         -0.39425       -1.28861        0.74398
O         -0.10189       -1.56493        1.88303
O         -1.10210       -2.13717        0.06896
H         -1.10355       -2.86501        0.71335
