13
acq.gzmat
C          0.00000        0.00000        0.00000
H          1.09300        0.00000        0.00000
N         -0.47961        0.00000       -1.41207
H         -0.69880        0.95935       -1.68306
H          0.25644       -0.37429       -2.00727
C         -0.49584        1.26211        0.72868
H         -1.58789        1.28919        0.74431
H         -0.13407        1.27425        1.75947
H         -0.13407        2.16087        0.22380
C         -0.39425       -1.28861        0.74398
O         -0.10189       -1.56493        1.88303
O         -1.10210       -2.13717        0.06896
H         -1.03899       -1.71249       -0.80319
13
acq.gzmat
C          0.00000        0.00000        0.00000
H          1.09300        0.00000        0.00000
N         -0.47961        0.00000       -1.41207
H         -0.71342       -0.95728       -1.67809
H         -1.30326        0.59451       -1.47752
C         -0.49584        1.26211        0.72868
H         -1.58789        1.28919        0.74431
H         -0.13407        1.27425        1.75947
H         -0.13407        2.16087        0.22380
C         -0.39425       -1.28861        0.74398
O         -0.10189       -1.56493        1.88303
O         -1.10210       -2.13717        0.06896
H         -0.92780       -1.79012       -0.82219
13
acq.gzmat
C          0.00000        0.00000        0.00000
H          1.09300        0.00000        0.00000
N         -0.47961        0.00000       -1.41207
H          0.22634        0.44833       -1.99728
H         -0.62254       -0.96317       -1.70872
C         -0.49584        1.26211        0.72868
H         -1.58789        1.28919        0.74431
H         -0.13407        1.27425        1.75947
H         -0.13407        2.16087        0.22380
C         -0.39425       -1.28861        0.74398
O         -0.10189       -1.56493        1.88303
O         -1.10210       -2.13717        0.06896
H         -1.05302       -2.88605        0.68682
13
acq.gzmat
C          0.00000        0.00000        0.00000
H          1.09300        0.00000        0.00000
N         -0.47961        0.00000       -1.41207
H         -1.39992        0.44020       -1.44492
H          0.18152        0.52385       -1.98182
C         -0.49584        1.26211        0.72868
H         -1.58789        1.28919        0.74431
H         -0.13407        1.27425        1.75947
H         -0.13407        2.16087        0.22380
C         -0.39425       -1.28861        0.74398
O         -0.10189       -1.56493        1.88303
O         -1.10210       -2.13717        0.06896
H         -0.99433       -1.74217       -0.81271
13
acq.gzmat
C          0.00000        0.00000        0.00000
H          1.09300        0.00000        0.00000
N         -0.47961        0.00000       -1.41207
H          0.29687       -0.26045       -2.02123
H         -1.23719       -0.67415       -1.49996
C         -0.49584        1.26211        0.72868
H         -1.58789        1.28919        0.74431
H         -0.13407        1.27425        1.75947
H         -0.13407        2.16087        0.22380
C         -0.39425       -1.28861        0.74398
O         -0.10189       -1.56493        1.88303
O         -1.10210       -2.13717        0.06896
H         -1.29078       -2.76630        0.78560
13
acq.gzmat
C          0.00000        0.00000        0.00000
H          1.09300        0.00000        0.00000
N         -0.47961        0.00000       -1.41207
H         -1.43210       -0.36621       -1.43399
H         -0.46174        0.95520       -1.76334
C         -0.49584        1.26211        0.72868
H         -1.58789        1.28919        0.74431
H         -0.13407        1.27425        1.75947
H         -0.13407        2.16087        0.22380
C         -0.39425       -1.28861        0.74398
O         -0.10189       -1.56493        1.88303
O         -1.10210       -2.13717        0.06896
H         -1.15190       -2.84263        0.73592
13
acq.gzmat
C          0.00000        0.00000        0.00000
H          1.09300        0.00000        0.00000
N         -0.47961        0.00000       -1.41207
H         -0.35135       -0.93491       -1.80107
H         -1.46547        0.25318       -1.42242
C         -0.49584        1.26211        0.72868
H         -1.58789        1.28919        0.74431
H         -0.13407        1.27425        1.75947
H         -0.13407        2.16087        0.22380
C         -0.39425       -1.28861        0.74398
O         -0.10189       -1.56493        1.88303
O         -1.10210       -2.13717        0.06896
H         -1.01194       -2.90136        0.66298
13
acq.gzmat
C          0.00000        0.00000        0.00000
H          1.09300        0.00000        0.00000
N         -0.47961        0.00000       -1.41207
H         -1.20229        0.71384       -1.51205
H          0.30671        0.20723       -2.02434
C         -0.49584        1.26211        0.72868
H         -1.58789        1.28919        0.74431
H         -0.13407        1.27425        1.75947
H         -0.13407        2.16087        0.22380
C         -0.39425       -1.28861        0.74398
O         -0.10189       -1.56493        1.88303
O         -1.10210       -2.13717        0.06896
H         -1.46099       -1.52542       -0.59582
13
acq.gzmat
C          0.00000        0.00000        0.00000
H          1.09300        0.00000        0.00000
N         -0.47961        0.00000       -1.41207
H         -0.28317        0.91289       -1.82423
H          0.01126       -0.73014       -1.92399
C         -0.49584        1.26211        0.72868
H         -1.58789        1.28919        0.74431
H         -0.13407        1.27425        1.75947
H         -0.13407        2.16087        0.22380
C         -0.39425       -1.28861        0.74398
O         -0.10189       -1.56493        1.88303
O         -1.10210       -2.13717        0.06896
H         -1.45292       -2.65367        0.81404
13
acq.gzmat
C          0.00000        0.00000        0.00000
H          1.09300        0.00000        0.00000
N         -0.47961        0.00000       -1.41207
H         -1.31818        0.57875       -1.47269
H          0.25404        0.38025       -2.00645
C         -0.49584        1.26211        0.72868
H         -1.58789        1.28919        0.74431
H         -0.13407        1.27425        1.75947
H         -0.13407        2.16087        0.22380
C         -0.39425       -1.28861        0.74398
O         -0.10189       -1.56493        1.88303
O         -1.10210       -2.13717        0.06896
H         -1.12339       -2.85608        0.72294
13
acq.gzmat
C          0.00000        0.00000        0.00000
H          1.09300        0.00000        0.00000
N         -0.47961        0.00000       -1.41207
H         -0.06438        0.79546       -1.89854
H         -0.19381       -0.87112       -1.85434
C         -0.49584        1.26211        0.72868
H         -1.58789        1.28919        0.74431
H         -0.13407        1.27425        1.75947
H         -0.13407        2.16087        0.22380
C         -0.39425       -1.28861        0.74398
O         -0.10189       -1.56493        1.88303
O         -1.10210       -2.13717        0.06896
H         -0.76292       -1.93071       -0.81835
13
acq.gzmat
C          0.00000        0.00000        0.00000
H          1.09300        0.00000        0.00000
N         -0.47961        0.00000       -1.41207
H         -1.49380       -0.11509       -1.41304
H         -0.22567        0.88628       -1.84352
C         -0.49584        1.26211        0.72868
H         -1.58789        1.28919        0.74431
H         -0.13407        1.27425        1.75947
H         -0.13407        2.16087        0.22380
C         -0.39425       -1.28861        0.74398
O         -0.10189       -1.56493        1.88303
O         -1.10210       -2.13717        0.06896
H         -0.69108       -2.00380       -0.80181
13
acq.gzmat
C          0.00000        0.00000        0.00000
H          1.09300        0.00000        0.00000
N         -0.47961        0.00000       -1.41207
H         -1.15249        0.75855       -1.52896
H          0.31844        0.13953       -2.02833
C         -0.49584        1.26211        0.72868
H         -1.58789        1.28919        0.74431
H         -0.13407        1.27425        1.75947
H         -0.13407        2.16087        0.22380
C         -0.39425       -1.28861        0.74398
O         -0.10189       -1.56493        1.88303
O         -1.10210       -2.13717        0.06896
H         -0.92363       -1.79328       -0.82259
13
acq.gzmat
C          0.00000        0.00000        0.00000
H          1.09300        0.00000        0.00000
N         -0.47961        0.00000       -1.41207
H         -0.40913       -0.94891       -1.78144
H         -1.44810        0.31285       -1.42832
C         -0.49584        1.26211        0.72868
H         -1.58789        1.28919        0.74431
H         -0.13407        1.27425        1.75947
H         -0.13407        2.16087        0.22380
C         -0.39425       -1.28861        0.74398
O         -0.10189       -1.56493        1.88303
O         -1.10210       -2.13717        0.06896
H         -1.41999       -2.67873        0.81101
13
acq.gzmat
C          0.00000        0.00000        0.00000
H          1.09300        0.00000        0.00000
N         -0.47961        0.00000       -1.41207
H         -1.48703        0.16410       -1.41534
H         -0.00079        0.74092       -1.91990
C         -0.49584        1.26211        0.72868
H         -1.58789        1.28919        0.74431
H         -0.13407        1.27425        1.75947
H         -0.13407        2.16087        0.22380
C         -0.39425       -1.28861        0.74398
O         -0.10189       -1.56493        1.88303
O         -1.10210       -2.13717        0.06896
H         -1.46466       -2.64444        0.81475
13
acq.gzmat
C          0.00000        0.00000        0.00000
H          1.09300        0.00000        0.00000
N         -0.47961        0.00000       -1.41207
H          0.01151       -0.73365       -1.92431
H         -1.48181       -0.17803       -1.41687
C         -0.49584        1.26211        0.72868
H         -1.58789        1.28919        0.74431
H         -0.13407        1.27425        1.75947
H         -0.13407        2.16087        0.22380
C         -0.39425       -1.28861        0.74398
O         -0.10189       -1.56493        1.88303
O         -1.10210       -2.13717        0.06896
H         -1.17509       -2.83112        0.74578
13
acq.gzmat
C          0.00000        0.00000        0.00000
H          1.09300        0.00000        0.00000
N         -0.47961        0.00000       -1.41207
H         -1.12198        0.78294       -1.53932
H          0.32317        0.09955       -2.02993
C         -0.49584        1.26211        0.72868
H         -1.58789        1.28919        0.74431
H         -0.13407        1.27425        1.75947
H         -0.13407        2.16087        0.22380
C         -0.39425       -1.28861        0.74398
O         -0.10189       -1.56493        1.88303
O         -1.10210       -2.13717        0.06896
H         -1.14093       -1.65190       -0.77245
13
acq.gzmat
C          0.00000        0.00000        0.00000
H          1.09300        0.00000        0.00000
N         -0.47961        0.00000       -1.41207
H         -0.52659        0.96492       -1.74155
H          0.17515       -0.53410       -1.97966
C         -0.49584        1.26211        0.72868
H         -1.58789        1.28919        0.74431
H         -0.13407        1.27425        1.75947
H         -0.13407        2.16087        0.22380
C         -0.39425       -1.28861        0.74398
O         -0.10189       -1.56493        1.88303
O         -1.10210       -2.13717        0.06896
H         -1.34389       -1.56010       -0.67502
13
acq.gzmat
C          0.00000        0.00000        0.00000
H          1.09300        0.00000        0.00000
N         -0.47961        0.00000       -1.41207
H          0.19091        0.51352       -1.98525
H         -0.55158       -0.96336       -1.73282
C         -0.49584        1.26211        0.72868
H         -1.58789        1.28919        0.74431
H         -0.13407        1.27425        1.75947
H         -0.13407        2.16087        0.22380
C         -0.39425       -1.28861        0.74398
O         -0.10189       -1.56493        1.88303
O         -1.10210       -2.13717        0.06896
H         -1.57483       -2.54986        0.81138
13
acq.gzmat
C          0.00000        0.00000        0.00000
H          1.09300        0.00000        0.00000
N         -0.47961        0.00000       -1.41207
H         -0.30489        0.92057       -1.81685
H          0.02837       -0.71417       -1.92980
C         -0.49584        1.26211        0.72868
H         -1.58789        1.28919        0.74431
H         -0.13407        1.27425        1.75947
H         -0.13407        2.16087        0.22380
C         -0.39425       -1.28861        0.74398
O         -0.10189       -1.56493        1.88303
O         -1.10210       -2.13717        0.06896
H         -0.93580       -2.92528        0.61321
13
acq.gzmat
C          0.00000        0.00000        0.00000
H          1.09300        0.00000        0.00000
N         -0.47961        0.00000       -1.41207
H         -0.89329        0.91033       -1.61700
H          0.31332       -0.17250       -2.02659
C         -0.49584        1.26211        0.72868
H         -1.58789        1.28919        0.74431
H         -0.13407        1.27425        1.75947
H         -0.13407        2.16087        0.22380
C         -0.39425       -1.28861        0.74398
O         -0.10189       -1.56493        1.88303
O         -1.10210       -2.13717        0.06896
H         -1.23883       -1.60281       -0.73150
13
acq.gzmat
C          0.00000        0.00000        0.00000
H          1.09300        0.00000        0.00000
N         -0.47961        0.00000       -1.41207
H         -1.49941        0.04290       -1.41113
H         -0.09371        0.81264       -1.88834
C         -0.49584        1.26211        0.72868
H         -1.58789        1.28919        0.74431
H         -0.13407        1.27425        1.75947
H         -0.13407        2.16087        0.22380
C         -0.39425       -1.28861        0.74398
O         -0.10189       -1.56493        1.88303
O         -1.10210       -2.13717        0.06896
H         -0.90987       -2.93204        0.59452
13
acq.gzmat
C          0.00000        0.00000        0.00000
H          1.09300        0.00000        0.00000
N         -0.47961        0.00000       -1.41207
H         -1.17137        0.74236       -1.52255
H          0.31461        0.16481       -2.02703
C         -0.49584        1.26211        0.72868
H         -1.58789        1.28919        0.74431
H         -0.13407        1.27425        1.75947
H         -0.13407        2.16087        0.22380
C         -0.39425       -1.28861        0.74398
O         -0.10189       -1.56493        1.88303
O         -1.10210       -2.13717        0.06896
H         -1.13356       -1.65595       -0.77509
13
acq.gzmat
C          0.00000        0.00000        0.00000
H          1.09300        0.00000        0.00000
N         -0.47961        0.00000       -1.41207
H         -1.05315        0.83078       -1.56270
H          0.32797        0.01293       -2.03156
C         -0.49584        1.26211        0.72868
H         -1.58789        1.28919        0.74431
H         -0.13407        1.27425        1.75947
H         -0.13407        2.16087        0.22380
C         -0.39425       -1.28861        0.74398
O         -0.10189       -1.56493        1.88303
O         -1.10210       -2.13717        0.06896
H         -1.15150       -1.64617       -0.76857
13
acq.gzmat
C          0.00000        0.00000        0.00000
H          1.09300        0.00000        0.00000
N         -0.47961        0.00000       -1.41207
H          0.19108       -0.51324       -1.98530
H         -1.39112       -0.45166       -1.44767
C         -0.49584        1.26211        0.72868
H         -1.58789        1.28919        0.74431
H         -0.13407        1.27425        1.75947
H         -0.13407        2.16087        0.22380
C         -0.39425       -1.28861        0.74398
O         -0.10189       -1.56493        1.88303
O         -1.10210       -2.13717        0.06896
H         -0.68455       -2.95524        0.38740
13
acq.gzmat
C          0.00000        0.00000        0.00000
H          1.09300        0.00000        0.00000
N         -0.47961        0.00000       -1.41207
H         -1.07381        0.81739       -1.55569
H          0.32733        0.03844       -2.03134
C         -0.49584        1.26211        0.72868
H         -1.58789        1.28919        0.74431
H         -0.13407        1.27425        1.75947
H         -0.13407        2.16087        0.22380
C         -0.39425       -1.28861        0.74398
O         -0.10189       -1.56493        1.88303
O         -1.10210       -2.13717        0.06896
H         -1.16355       -1.63977       -0.76398
13
acq.gzmat
C          0.00000        0.00000        0.00000
H          1.09300        0.00000        0.00000
N         -0.47961        0.00000       -1.41207
H         -1.16145       -0.75097       -1.52592
H         -0.91124        0.90021       -1.61067
C         -0.49584        1.26211        0.72868
H         -1.58789        1.28919        0.74431
H         -0.13407        1.27425        1.75947
H         -0.13407        2.16087        0.22380
C         -0.39425       -1.28861        0.74398
O         -0.10189       -1.56493        1.88303
O         -1.10210       -2.13717        0.06896
H         -1.78438       -1.52582       -0.25619
13
acq.gzmat
C          0.00000        0.00000        0.00000
H          1.09300        0.00000        0.00000
N         -0.47961        0.00000       -1.41207
H          0.10847       -0.63149       -1.95724
H         -1.44662       -0.31738       -1.42882
C         -0.49584        1.26211        0.72868
H         -1.58789        1.28919        0.74431
H         -0.13407        1.27425        1.75947
H         -0.13407        2.16087        0.22380
C         -0.39425       -1.28861        0.74398
O         -0.10189       -1.56493        1.88303
O         -1.10210       -2.13717        0.06896
H         -0.45068       -2.34811       -0.62107
13
acq.gzmat
C          0.00000        0.00000        0.00000
H          1.09300        0.00000        0.00000
N         -0.47961        0.00000       -1.41207
H         -0.03605        0.77394       -1.90816
H         -0.22553       -0.88621       -1.84357
C         -0.49584        1.26211        0.72868
H         -1.58789        1.28919        0.74431
H         -0.13407        1.27425        1.75947
H         -0.13407        2.16087        0.22380
C         -0.39425       -1.28861        0.74398
O         -0.10189       -1.56493        1.88303
O         -1.10210       -2.13717        0.06896
H         -1.19707       -2.81976        0.75455
13
acq.gzmat
C          0.00000        0.00000        0.00000
H          1.09300        0.00000        0.00000
N         -0.47961        0.00000       -1.41207
H         -1.45363       -0.30481       -1.42668
H         -0.40081        0.94422       -1.78403
C         -0.49584        1.26211        0.72868
H         -1.58789        1.28919        0.74431
H         -0.13407        1.27425        1.75947
H         -0.13407        2.16087        0.22380
C         -0.39425       -1.28861        0.74398
O         -0.10189       -1.56493        1.88303
O         -1.10210       -2.13717        0.06896
H         -1.97865       -1.89651        0.41352
13
acq.gzmat
C          0.00000        0.00000        0.00000
H          1.09300        0.00000        0.00000
N         -0.47961        0.00000       -1.41207
H         -0.78035       -0.94456       -1.65536
H         -1.25949        0.64920       -1.49238
C         -0.49584        1.26211        0.72868
H         -1.58789        1.28919        0.74431
H         -0.13407        1.27425        1.75947
H         -0.13407        2.16087        0.22380
C         -0.39425       -1.28861        0.74398
O         -0.10189       -1.56493        1.88303
O         -1.10210       -2.13717        0.06896
H         -1.17332       -2.83202        0.74505
13
acq.gzmat
C          0.00000        0.00000        0.00000
H          1.09300        0.00000        0.00000
N         -0.47961        0.00000       -1.41207
H         -0.24361       -0.89722       -1.83766
H         -1.48836        0.13614       -1.41465
C         -0.49584        1.26211        0.72868
H         -1.58789        1.28919        0.74431
H         -0.13407        1.27425        1.75947
H         -0.13407        2.16087        0.22380
C         -0.39425       -1.28861        0.74398
O         -0.10189       -1.56493        1.88303
O         -1.10210       -2.13717        0.06896
H         -1.21034       -2.81269        0.75957
13
acq.gzmat
C          0.00000        0.00000        0.00000
H          1.09300        0.00000        0.00000
N         -0.47961        0.00000       -1.41207
H          0.32987       -0.04135       -2.03244
H         -1.07451       -0.81346       -1.55521
C         -0.49584        1.26211        0.72868
H         -1.58789        1.28919        0.74431
H         -0.13407        1.27425        1.75947
H         -0.13407        2.16087        0.22380
C         -0.39425       -1.28861        0.74398
O         -0.10189       -1.56493        1.88303
O         -1.10210       -2.13717        0.06896
H         -1.78961       -1.52762       -0.24845
13
acq.gzmat
C          0.00000        0.00000        0.00000
H          1.09300        0.00000        0.00000
N         -0.47961        0.00000       -1.41207
H         -1.12735        0.77880       -1.53750
H          0.32247        0.10650       -2.02969
C         -0.49584        1.26211        0.72868
H         -1.58789        1.28919        0.74431
H         -0.13407        1.27425        1.75947
H         -0.13407        2.16087        0.22380
C         -0.39425       -1.28861        0.74398
O         -0.10189       -1.56493        1.88303
O         -1.10210       -2.13717        0.06896
H         -1.96530       -1.96011        0.47947
13
acq.gzmat
C          0.00000        0.00000        0.00000
H          1.09300        0.00000        0.00000
N         -0.47961        0.00000       -1.41207
H          0.17391       -0.54110       -1.97947
H         -1.40535       -0.42212       -1.44284
C         -0.49584        1.26211        0.72868
H         -1.58789        1.28919        0.74431
H         -0.13407        1.27425        1.75947
H         -0.13407        2.16087        0.22380
C         -0.39425       -1.28861        0.74398
O         -0.10189       -1.56493        1.88303
O         -1.10210       -2.13717        0.06896
H         -1.19245       -1.62496       -0.75229
13
acq.gzmat
C          0.00000        0.00000        0.00000
H          1.09300        0.00000        0.00000
N         -0.47961        0.00000       -1.41207
H         -0.35191        0.93507       -1.80088
H          0.06366       -0.67851       -1.94179
C         -0.49584        1.26211        0.72868
H         -1.58789        1.28919        0.74431
H         -0.13407        1.27425        1.75947
H         -0.13407        2.16087        0.22380
C         -0.39425       -1.28861        0.74398
O         -0.10189       -1.56493        1.88303
O         -1.10210       -2.13717        0.06896
H         -0.37553       -2.67340       -0.29095
13
acq.gzmat
C          0.00000        0.00000        0.00000
H          1.09300        0.00000        0.00000
N         -0.47961        0.00000       -1.41207
H         -0.98769       -0.86822       -1.58494
H         -1.09372        0.80021       -1.54869
C         -0.49584        1.26211        0.72868
H         -1.58789        1.28919        0.74431
H         -0.13407        1.27425        1.75947
H         -0.13407        2.16087        0.22380
C         -0.39425       -1.28861        0.74398
O         -0.10189       -1.56493        1.88303
O         -1.10210       -2.13717        0.06896
H         -0.37577       -2.67633       -0.28703
13
acq.gzmat
C          0.00000        0.00000        0.00000
H          1.09300        0.00000        0.00000
N         -0.47961        0.00000       -1.41207
H         -1.38255        0.47437       -1.45082
H          0.20079        0.49098       -1.98837
C         -0.49584        1.26211        0.72868
H         -1.58789        1.28919        0.74431
H         -0.13407        1.27425        1.75947
H         -0.13407        2.16087        0.22380
C         -0.39425       -1.28861        0.74398
O         -0.10189       -1.56493        1.88303
O         -1.10210       -2.13717        0.06896
H         -0.37985       -2.70858       -0.24220
13
acq.gzmat
C          0.00000        0.00000        0.00000
H          1.09300        0.00000        0.00000
N         -0.47961        0.00000       -1.41207
H         -0.72459       -0.95554       -1.67430
H         -1.29626        0.60382       -1.47989
C         -0.49584        1.26211        0.72868
H         -1.58789        1.28919        0.74431
H         -0.13407        1.27425        1.75947
H         -0.13407        2.16087        0.22380
C         -0.39425       -1.28861        0.74398
O         -0.10189       -1.56493        1.88303
O         -1.10210       -2.13717        0.06896
H         -1.98204       -1.76954        0.25746
13
acq.gzmat
C          0.00000        0.00000        0.00000
H          1.09300        0.00000        0.00000
N         -0.47961        0.00000       -1.41207
H          0.31149        0.19705       -2.02620
H         -0.87043       -0.91555       -1.62453
C         -0.49584        1.26211        0.72868
H         -1.58789        1.28919        0.74431
H         -0.13407        1.27425        1.75947
H         -0.13407        2.16087        0.22380
C         -0.39425       -1.28861        0.74398
O         -0.10189       -1.56493        1.88303
O         -1.10210       -2.13717        0.06896
H         -0.37772       -2.69459       -0.26202
13
acq.gzmat
C          0.00000        0.00000        0.00000
H          1.09300        0.00000        0.00000
N         -0.47961        0.00000       -1.41207
H         -0.46447       -0.95849       -1.76265
H         -1.42835        0.36809       -1.43503
C         -0.49584        1.26211        0.72868
H         -1.58789        1.28919        0.74431
H         -0.13407        1.27425        1.75947
H         -0.13407        2.16087        0.22380
C         -0.39425       -1.28861        0.74398
O         -0.10189       -1.56493        1.88303
O         -1.10210       -2.13717        0.06896
H         -1.54768       -1.50959       -0.52481
13
acq.gzmat
C          0.00000        0.00000        0.00000
H          1.09300        0.00000        0.00000
N         -0.47961        0.00000       -1.41207
H          0.00368        0.74067       -1.92165
H         -0.27254       -0.90586       -1.82760
C         -0.49584        1.26211        0.72868
H         -1.58789        1.28919        0.74431
H         -0.13407        1.27425        1.75947
H         -0.13407        2.16087        0.22380
C         -0.39425       -1.28861        0.74398
O         -0.10189       -1.56493        1.88303
O         -1.10210       -2.13717        0.06896
H         -1.96980       -1.94190        0.46131
13
acq.gzmat
C          0.00000        0.00000        0.00000
H          1.09300        0.00000        0.00000
N         -0.47961        0.00000       -1.41207
H         -1.27629       -0.63367       -1.48692
H         -0.75808        0.94645       -1.66269
C         -0.49584        1.26211        0.72868
H         -1.58789        1.28919        0.74431
H         -0.13407        1.27425        1.75947
H         -0.13407        2.16087        0.22380
C         -0.39425       -1.28861        0.74398
O         -0.10189       -1.56493        1.88303
O         -1.10210       -2.13717        0.06896
H         -1.19852       -1.62195       -0.74971
13
acq.gzmat
C          0.00000        0.00000        0.00000
H          1.09300        0.00000        0.00000
N         -0.47961        0.00000       -1.41207
H         -0.67003        0.96268       -1.69283
H          0.24482       -0.40218       -2.00332
C         -0.49584        1.26211        0.72868
H         -1.58789        1.28919        0.74431
H         -0.13407        1.27425        1.75947
H         -0.13407        2.16087        0.22380
C         -0.39425       -1.28861        0.74398
O         -0.10189       -1.56493        1.88303
O         -1.10210       -2.13717        0.06896
H         -1.21375       -2.81085        0.76082
13
acq.gzmat
C          0.00000        0.00000        0.00000
H          1.09300        0.00000        0.00000
N         -0.47961        0.00000       -1.41207
H          0.30656       -0.22059       -2.02453
H         -1.20943       -0.70286       -1.50939
C         -0.49584        1.26211        0.72868
H         -1.58789        1.28919        0.74431
H         -0.13407        1.27425        1.75947
H         -0.13407        2.16087        0.22380
C         -0.39425       -1.28861        0.74398
O         -0.10189       -1.56493        1.88303
O         -1.10210       -2.13717        0.06896
H         -1.85946       -2.20373        0.67473
13
acq.gzmat
C          0.00000        0.00000        0.00000
H          1.09300        0.00000        0.00000
N         -0.47961        0.00000       -1.41207
H         -1.22282       -0.69341       -1.50507
H         -0.83358        0.92748       -1.63704
C         -0.49584        1.26211        0.72868
H         -1.58789        1.28919        0.74431
H         -0.13407        1.27425        1.75947
H         -0.13407        2.16087        0.22380
C         -0.39425       -1.28861        0.74398
O         -0.10189       -1.56493        1.88303
O         -1.10210       -2.13717        0.06896
H         -1.79648       -2.29985        0.72953
13
acq.gzmat
C          0.00000        0.00000        0.00000
H          1.09300        0.00000        0.00000
N         -0.47961        0.00000       -1.41207
H         -0.19689       -0.87579       -1.85353
H         -1.49413        0.08286       -1.41269
C         -0.49584        1.26211        0.72868
H         -1.58789        1.28919        0.74431
H         -0.13407        1.27425        1.75947
H         -0.13407        2.16087        0.22380
C         -0.39425       -1.28861        0.74398
O         -0.10189       -1.56493        1.88303
O         -1.10210       -2.13717        0.06896
H         -0.40757       -2.79476       -0.10479
13
acq.gzmat
C          0.00000        0.00000        0.00000
H          1.09300        0.00000        0.00000
N         -0.47961        0.00000       -1.41207
H         -0.92125        0.89922       -1.60750
H          0.31817       -0.14147       -2.02823
C         -0.49584        1.26211        0.72868
H         -1.58789        1.28919        0.74431
H         -0.13407        1.27425        1.75947
H         -0.13407        2.16087        0.22380
C         -0.39425       -1.28861        0.74398
O         -0.10189       -1.56493        1.88303
O         -1.10210       -2.13717        0.06896
H         -0.50304       -2.90045        0.12819
13
acq.gzmat
C          0.00000        0.00000        0.00000
H          1.09300        0.00000        0.00000
N         -0.47961        0.00000       -1.41207
H          0.33070        0.00298       -2.03273
H         -1.03868       -0.83632       -1.56738
C         -0.49584        1.26211        0.72868
H         -1.58789        1.28919        0.74431
H         -0.13407        1.27425        1.75947
H         -0.13407        2.16087        0.22380
C         -0.39425       -1.28861        0.74398
O         -0.10189       -1.56493        1.88303
O         -1.10210       -2.13717        0.06896
H         -0.62422       -2.08037       -0.77566
13
acq.gzmat
C          0.00000        0.00000        0.00000
H          1.09300        0.00000        0.00000
N         -0.47961        0.00000       -1.41207
H         -0.56320       -0.96661       -1.72911
H         -1.38577        0.46217       -1.44949
C         -0.49584        1.26211        0.72868
H         -1.58789        1.28919        0.74431
H         -0.13407        1.27425        1.75947
H         -0.13407        2.16087        0.22380
C         -0.39425       -1.28861        0.74398
O         -0.10189       -1.56493        1.88303
O         -1.10210       -2.13717        0.06896
H         -0.50221       -2.25251       -0.68721
