13
acq.gzmat
C          0.00000        0.00000        0.00000
H          1.09300        0.00000        0.00000
N         -0.47961        0.00000       -1.41207
H         -0.50523        0.96322       -1.74880
H          0.16311       -0.55273       -1.97557
C         -0.49584        1.26211        0.72868
H          0.15994        2.10903        0.51365
H         -1.50784        1.51648        0.40510
H         -0.50812        1.09879        1.80883
C         -0.39425       -1.28861        0.74398
O          0.21957       -1.79673        1.65189
O         -1.48441       -1.86150        0.34385
H         -1.11276       -2.37420       -0.39370
