13
acq.gzmat
C          0.00000        0.00000        0.00000
H          1.09300        0.00000        0.00000
N         -0.47961        0.00000       -1.41207
H         -1.14532       -0.76447       -1.53140
H         -0.93031        0.89223       -1.60419
C         -0.49584        1.26211        0.72868
H         -1.58789        1.28919        0.74431
H         -0.13407        1.27425        1.75947
H         -0.13407        2.16087        0.22380
C         -0.39425       -1.28861        0.74398
O         -0.10189       -1.56493        1.88303
O         -1.10210       -2.13717        0.06896
H         -1.16119       -2.83808        0.73994
13
acq.gzmat
C          0.00000        0.00000        0.00000
H          1.09300        0.00000        0.00000
N         -0.47961        0.00000       -1.41207
H         -0.68148        0.96147       -1.68894
H          0.24954       -0.39114       -2.00492
C         -0.49584        1.26211        0.72868
H         -1.58789        1.28919        0.74431
H         -0.13407        1.27425        1.75947
H         -0.13407        2.16087        0.22380
C         -0.39425       -1.28861        0.74398
O         -0.10189       -1.56493        1.88303
O         -1.10210       -2.13717        0.06896
H         -1.51984       -2.59896        0.81544
13
acq.gzmat
C          0.00000        0.00000        0.00000
H          1.09300        0.00000        0.00000
N         -0.47961        0.00000       -1.41207
H          0.31013       -0.20384       -2.02574
H         -1.19751       -0.71446       -1.51343
C         -0.49584        1.26211        0.72868
H         -1.58789        1.28919        0.74431
H         -0.13407        1.27425        1.75947
H         -0.13407        2.16087        0.22380
C         -0.39425       -1.28861        0.74398
O         -0.10189       -1.56493        1.88303
O         -1.10210       -2.13717        0.06896
H         -1.38549       -1.54615       -0.64893
13
acq.gzmat
C          0.00000        0.00000        0.00000
H          1.09300        0.00000        0.00000
N         -0.47961        0.00000       -1.41207
H          0.11610        0.62203       -1.95984
H         -0.42558       -0.94923       -1.77562
C         -0.49584        1.26211        0.72868
H         -1.58789        1.28919        0.74431
H         -0.13407        1.27425        1.75947
H         -0.13407        2.16087        0.22380
C         -0.39425       -1.28861        0.74398
O         -0.10189       -1.56493        1.88303
O         -1.10210       -2.13717        0.06896
H         -1.32408       -2.74531        0.79413
13
acq.gzmat
C          0.00000        0.00000        0.00000
H          1.09300        0.00000        0.00000
N         -0.47961        0.00000       -1.41207
H         -0.09519       -0.81699       -1.88807
H         -1.49675       -0.03919       -1.41180
C         -0.49584        1.26211        0.72868
H         -1.58789        1.28919        0.74431
H         -0.13407        1.27425        1.75947
H         -0.13407        2.16087        0.22380
C         -0.39425       -1.28861        0.74398
O         -0.10189       -1.56493        1.88303
O         -1.10210       -2.13717        0.06896
H         -0.76694       -2.95506        0.47357
13
acq.gzmat
C          0.00000        0.00000        0.00000
H          1.09300        0.00000        0.00000
N         -0.47961        0.00000       -1.41207
H         -0.61144       -0.96647       -1.71273
H         -1.36161        0.50608       -1.45770
C         -0.49584        1.26211        0.72868
H         -1.58789        1.28919        0.74431
H         -0.13407        1.27425        1.75947
H         -0.13407        2.16087        0.22380
C         -0.39425       -1.28861        0.74398
O         -0.10189       -1.56493        1.88303
O         -1.10210       -2.13717        0.06896
H         -1.53208       -2.58837        0.81496
13
acq.gzmat
C          0.00000        0.00000        0.00000
H          1.09300        0.00000        0.00000
N         -0.47961        0.00000       -1.41207
H         -0.50551        0.96324       -1.74871
H          0.16327       -0.55249       -1.97562
C         -0.49584        1.26211        0.72868
H         -1.58789        1.28919        0.74431
H         -0.13407        1.27425        1.75947
H         -0.13407        2.16087        0.22380
C         -0.39425       -1.28861        0.74398
O         -0.10189       -1.56493        1.88303
O         -1.10210       -2.13717        0.06896
H         -1.24709       -1.59907       -0.72753
13
acq.gzmat
C          0.00000        0.00000        0.00000
H          1.09300        0.00000        0.00000
N         -0.47961        0.00000       -1.41207
H         -1.47577        0.22237       -1.41916
H          0.04124        0.70161       -1.93417
C         -0.49584        1.26211        0.72868
H         -1.58789        1.28919        0.74431
H         -0.13407        1.27425        1.75947
H         -0.13407        2.16087        0.22380
C         -0.39425       -1.28861        0.74398
O         -0.10189       -1.56493        1.88303
O         -1.10210       -2.13717        0.06896
H         -0.90837       -1.80501       -0.82385
13
acq.gzmat
C          0.00000        0.00000        0.00000
H          1.09300        0.00000        0.00000
N         -0.47961        0.00000       -1.41207
H         -1.50026        0.01034       -1.41084
H         -0.11991        0.82964       -1.87944
C         -0.49584        1.26211        0.72868
H         -1.58789        1.28919        0.74431
H         -0.13407        1.27425        1.75947
H         -0.13407        2.16087        0.22380
C         -0.39425       -1.28861        0.74398
O         -0.10189       -1.56493        1.88303
O         -1.10210       -2.13717        0.06896
H         -1.27224       -2.77753        0.78028
13
acq.gzmat
C          0.00000        0.00000        0.00000
H          1.09300        0.00000        0.00000
N         -0.47961        0.00000       -1.41207
H          0.16606       -0.55318       -1.97681
H         -1.41131       -0.40894       -1.44082
C         -0.49584        1.26211        0.72868
H         -1.58789        1.28919        0.74431
H         -0.13407        1.27425        1.75947
H         -0.13407        2.16087        0.22380
C         -0.39425       -1.28861        0.74398
O         -0.10189       -1.56493        1.88303
O         -1.10210       -2.13717        0.06896
H         -1.29884       -2.76132        0.78779
13
acq.gzmat
C          0.00000        0.00000        0.00000
H          1.09300        0.00000        0.00000
N         -0.47961        0.00000       -1.41207
H         -1.40823        0.42260       -1.44210
H          0.17127        0.54020       -1.97834
C         -0.49584        1.26211        0.72868
H         -1.58789        1.28919        0.74431
H         -0.13407        1.27425        1.75947
H         -0.13407        2.16087        0.22380
C         -0.39425       -1.28861        0.74398
O         -0.10189       -1.56493        1.88303
O         -1.10210       -2.13717        0.06896
H         -1.34610       -1.55932       -0.67369
13
acq.gzmat
C          0.00000        0.00000        0.00000
H          1.09300        0.00000        0.00000
N         -0.47961        0.00000       -1.41207
H         -1.45299        0.30683       -1.42690
H          0.09893        0.63873       -1.95377
C         -0.49584        1.26211        0.72868
H         -1.58789        1.28919        0.74431
H         -0.13407        1.27425        1.75947
H         -0.13407        2.16087        0.22380
C         -0.39425       -1.28861        0.74398
O         -0.10189       -1.56493        1.88303
O         -1.10210       -2.13717        0.06896
H         -0.78007       -2.95405        0.48607
13
acq.gzmat
C          0.00000        0.00000        0.00000
H          1.09300        0.00000        0.00000
N         -0.47961        0.00000       -1.41207
H         -0.30107       -0.91927       -1.81815
H         -1.47774        0.19954       -1.41825
C         -0.49584        1.26211        0.72868
H         -1.58789        1.28919        0.74431
H         -0.13407        1.27425        1.75947
H         -0.13407        2.16087        0.22380
C         -0.39425       -1.28861        0.74398
O         -0.10189       -1.56493        1.88303
O         -1.10210       -2.13717        0.06896
H         -1.17568       -2.83083        0.74602
13
acq.gzmat
C          0.00000        0.00000        0.00000
H          1.09300        0.00000        0.00000
N         -0.47961        0.00000       -1.41207
H         -0.25670        0.90265       -1.83322
H         -0.01030       -0.74917       -1.91667
C         -0.49584        1.26211        0.72868
H         -1.58789        1.28919        0.74431
H         -0.13407        1.27425        1.75947
H         -0.13407        2.16087        0.22380
C         -0.39425       -1.28861        0.74398
O         -0.10189       -1.56493        1.88303
O         -1.10210       -2.13717        0.06896
H         -1.05411       -2.88562        0.68742
13
acq.gzmat
C          0.00000        0.00000        0.00000
H          1.09300        0.00000        0.00000
N         -0.47961        0.00000       -1.41207
H         -1.44714       -0.32470       -1.42889
H         -0.42031        0.94823       -1.77741
C         -0.49584        1.26211        0.72868
H         -1.58789        1.28919        0.74431
H         -0.13407        1.27425        1.75947
H         -0.13407        2.16087        0.22380
C         -0.39425       -1.28861        0.74398
O         -0.10189       -1.56493        1.88303
O         -1.10210       -2.13717        0.06896
H         -1.00352       -2.90430        0.65784
13
acq.gzmat
C          0.00000        0.00000        0.00000
H          1.09300        0.00000        0.00000
N         -0.47961        0.00000       -1.41207
H         -0.27444        0.90962       -1.82719
H          0.00424       -0.73647       -1.92161
C         -0.49584        1.26211        0.72868
H         -1.58789        1.28919        0.74431
H         -0.13407        1.27425        1.75947
H         -0.13407        2.16087        0.22380
C         -0.39425       -1.28861        0.74398
O         -0.10189       -1.56493        1.88303
O         -1.10210       -2.13717        0.06896
H         -1.55157       -1.50909       -0.52135
13
acq.gzmat
C          0.00000        0.00000        0.00000
H          1.09300        0.00000        0.00000
N         -0.47961        0.00000       -1.41207
H         -1.39592        0.44836       -1.44628
H          0.18619        0.51614       -1.98341
C         -0.49584        1.26211        0.72868
H         -1.58789        1.28919        0.74431
H         -0.13407        1.27425        1.75947
H         -0.13407        2.16087        0.22380
C         -0.39425       -1.28861        0.74398
O         -0.10189       -1.56493        1.88303
O         -1.10210       -2.13717        0.06896
H         -1.85296       -2.21453        0.68150
13
acq.gzmat
C          0.00000        0.00000        0.00000
H          1.09300        0.00000        0.00000
N         -0.47961        0.00000       -1.41207
H         -1.18335        0.73161       -1.51848
H          0.31180        0.18110       -2.02607
C         -0.49584        1.26211        0.72868
H         -1.58789        1.28919        0.74431
H         -0.13407        1.27425        1.75947
H         -0.13407        2.16087        0.22380
C         -0.39425       -1.28861        0.74398
O         -0.10189       -1.56493        1.88303
O         -1.10210       -2.13717        0.06896
H         -1.02756       -1.71990       -0.80586
13
acq.gzmat
C          0.00000        0.00000        0.00000
H          1.09300        0.00000        0.00000
N         -0.47961        0.00000       -1.41207
H         -0.89706        0.90890       -1.61572
H          0.31403       -0.16835       -2.02683
C         -0.49584        1.26211        0.72868
H         -1.58789        1.28919        0.74431
H         -0.13407        1.27425        1.75947
H         -0.13407        2.16087        0.22380
C         -0.39425       -1.28861        0.74398
O         -0.10189       -1.56493        1.88303
O         -1.10210       -2.13717        0.06896
H         -1.27085       -1.58868       -0.71568
13
acq.gzmat
C          0.00000        0.00000        0.00000
H          1.09300        0.00000        0.00000
N         -0.47961        0.00000       -1.41207
H         -0.88016        0.91518       -1.62146
H          0.31074       -0.18689       -2.02571
C         -0.49584        1.26211        0.72868
H         -1.58789        1.28919        0.74431
H         -0.13407        1.27425        1.75947
H         -0.13407        2.16087        0.22380
C         -0.39425       -1.28861        0.74398
O         -0.10189       -1.56493        1.88303
O         -1.10210       -2.13717        0.06896
H         -1.04106       -1.71116       -0.80268
13
acq.gzmat
C          0.00000        0.00000        0.00000
H          1.09300        0.00000        0.00000
N         -0.47961        0.00000       -1.41207
H         -1.13905        0.76955       -1.53353
H          0.32074        0.12178       -2.02911
C         -0.49584        1.26211        0.72868
H         -1.58789        1.28919        0.74431
H         -0.13407        1.27425        1.75947
H         -0.13407        2.16087        0.22380
C         -0.39425       -1.28861        0.74398
O         -0.10189       -1.56493        1.88303
O         -1.10210       -2.13717        0.06896
H         -1.15017       -1.64689       -0.76906
13
acq.gzmat
C          0.00000        0.00000        0.00000
H          1.09300        0.00000        0.00000
N         -0.47961        0.00000       -1.41207
H         -1.03670        0.84087       -1.56829
H          0.32803       -0.00710       -2.03158
C         -0.49584        1.26211        0.72868
H         -1.58789        1.28919        0.74431
H         -0.13407        1.27425        1.75947
H         -0.13407        2.16087        0.22380
C         -0.39425       -1.28861        0.74398
O         -0.10189       -1.56493        1.88303
O         -1.10210       -2.13717        0.06896
H         -1.15177       -1.64603       -0.76847
13
acq.gzmat
C          0.00000        0.00000        0.00000
H          1.09300        0.00000        0.00000
N         -0.47961        0.00000       -1.41207
H         -0.16082       -0.85694       -1.86578
H         -1.49670        0.04057       -1.41181
C         -0.49584        1.26211        0.72868
H         -1.58789        1.28919        0.74431
H         -0.13407        1.27425        1.75947
H         -0.13407        2.16087        0.22380
C         -0.39425       -1.28861        0.74398
O         -0.10189       -1.56493        1.88303
O         -1.10210       -2.13717        0.06896
H         -0.77155       -1.92249       -0.81965
13
acq.gzmat
C          0.00000        0.00000        0.00000
H          1.09300        0.00000        0.00000
N         -0.47961        0.00000       -1.41207
H          0.31988        0.14830       -2.02905
H         -0.91447       -0.89889       -1.60957
C         -0.49584        1.26211        0.72868
H         -1.58789        1.28919        0.74431
H         -0.13407        1.27425        1.75947
H         -0.13407        2.16087        0.22380
C         -0.39425       -1.28861        0.74398
O         -0.10189       -1.56493        1.88303
O         -1.10210       -2.13717        0.06896
H         -1.06164       -2.88264        0.69156
13
acq.gzmat
C          0.00000        0.00000        0.00000
H          1.09300        0.00000        0.00000
N         -0.47961        0.00000       -1.41207
H         -1.07174        0.81877       -1.55639
H          0.32742        0.03587       -2.03138
C         -0.49584        1.26211        0.72868
H         -1.58789        1.28919        0.74431
H         -0.13407        1.27425        1.75947
H         -0.13407        2.16087        0.22380
C         -0.39425       -1.28861        0.74398
O         -0.10189       -1.56493        1.88303
O         -1.10210       -2.13717        0.06896
H         -1.16543       -1.63878       -0.76325
13
acq.gzmat
C          0.00000        0.00000        0.00000
H          1.09300        0.00000        0.00000
N         -0.47961        0.00000       -1.41207
H         -1.08586        0.80921       -1.55159
H          0.32665        0.05351       -2.03111
C         -0.49584        1.26211        0.72868
H         -1.58789        1.28919        0.74431
H         -0.13407        1.27425        1.75947
H         -0.13407        2.16087        0.22380
C         -0.39425       -1.28861        0.74398
O         -0.10189       -1.56493        1.88303
O         -1.10210       -2.13717        0.06896
H         -1.14427       -1.65008       -0.77124
13
acq.gzmat
C          0.00000        0.00000        0.00000
H          1.09300        0.00000        0.00000
N         -0.47961        0.00000       -1.41207
H         -0.93489       -0.89339       -1.60287
H         -1.14062        0.76461       -1.53276
C         -0.49584        1.26211        0.72868
H         -1.58789        1.28919        0.74431
H         -0.13407        1.27425        1.75947
H         -0.13407        2.16087        0.22380
C         -0.39425       -1.28861        0.74398
O         -0.10189       -1.56493        1.88303
O         -1.10210       -2.13717        0.06896
H         -1.93190       -1.63215        0.03216
13
acq.gzmat
C          0.00000        0.00000        0.00000
H          1.09300        0.00000        0.00000
N         -0.47961        0.00000       -1.41207
H         -0.48033        0.96056       -1.75726
H          0.14852       -0.57411       -1.97061
C         -0.49584        1.26211        0.72868
H         -1.58789        1.28919        0.74431
H         -0.13407        1.27425        1.75947
H         -0.13407        2.16087        0.22380
C         -0.39425       -1.28861        0.74398
O         -0.10189       -1.56493        1.88303
O         -1.10210       -2.13717        0.06896
H         -1.98289       -1.86231        0.37497
13
acq.gzmat
C          0.00000        0.00000        0.00000
H          1.09300        0.00000        0.00000
N         -0.47961        0.00000       -1.41207
H          0.14106       -0.58923       -1.96832
H         -1.42832       -0.36817       -1.43504
C         -0.49584        1.26211        0.72868
H         -1.58789        1.28919        0.74431
H         -0.13407        1.27425        1.75947
H         -0.13407        2.16087        0.22380
C         -0.39425       -1.28861        0.74398
O         -0.10189       -1.56493        1.88303
O         -1.10210       -2.13717        0.06896
H         -1.97632       -1.73583        0.20910
13
acq.gzmat
C          0.00000        0.00000        0.00000
H          1.09300        0.00000        0.00000
N         -0.47961        0.00000       -1.41207
H          0.32902        0.05876       -2.03215
H         -0.99223       -0.86259       -1.58316
C         -0.49584        1.26211        0.72868
H         -1.58789        1.28919        0.74431
H         -0.13407        1.27425        1.75947
H         -0.13407        2.16087        0.22380
C         -0.39425       -1.28861        0.74398
O         -0.10189       -1.56493        1.88303
O         -1.10210       -2.13717        0.06896
H         -0.63299       -2.06977       -0.77979
13
acq.gzmat
C          0.00000        0.00000        0.00000
H          1.09300        0.00000        0.00000
N         -0.47961        0.00000       -1.41207
H         -0.55847       -0.96647       -1.73072
H         -1.38802        0.45778       -1.44873
C         -0.49584        1.26211        0.72868
H         -1.58789        1.28919        0.74431
H         -0.13407        1.27425        1.75947
H         -0.13407        2.16087        0.22380
C         -0.39425       -1.28861        0.74398
O         -0.10189       -1.56493        1.88303
O         -1.10210       -2.13717        0.06896
H         -1.49297       -1.51853       -0.57095
13
acq.gzmat
C          0.00000        0.00000        0.00000
H          1.09300        0.00000        0.00000
N         -0.47961        0.00000       -1.41207
H         -1.46784        0.25521       -1.42185
H          0.06413        0.67801       -1.94195
C         -0.49584        1.26211        0.72868
H         -1.58789        1.28919        0.74431
H         -0.13407        1.27425        1.75947
H         -0.13407        2.16087        0.22380
C         -0.39425       -1.28861        0.74398
O         -0.10189       -1.56493        1.88303
O         -1.10210       -2.13717        0.06896
H         -0.37452       -2.65397       -0.31644
13
acq.gzmat
C          0.00000        0.00000        0.00000
H          1.09300        0.00000        0.00000
N         -0.47961        0.00000       -1.41207
H         -1.10474        0.79581       -1.54518
H          0.32511        0.07741       -2.03059
C         -0.49584        1.26211        0.72868
H         -1.58789        1.28919        0.74431
H         -0.13407        1.27425        1.75947
H         -0.13407        2.16087        0.22380
C         -0.39425       -1.28861        0.74398
O         -0.10189       -1.56493        1.88303
O         -1.10210       -2.13717        0.06896
H         -1.17521       -2.83107        0.74583
13
acq.gzmat
C          0.00000        0.00000        0.00000
H          1.09300        0.00000        0.00000
N         -0.47961        0.00000       -1.41207
H         -0.19400       -0.87436       -1.85451
H         -1.49440        0.07951       -1.41260
C         -0.49584        1.26211        0.72868
H         -1.58789        1.28919        0.74431
H         -0.13407        1.27425        1.75947
H         -0.13407        2.16087        0.22380
C         -0.39425       -1.28861        0.74398
O         -0.10189       -1.56493        1.88303
O         -1.10210       -2.13717        0.06896
H         -0.37436       -2.63807       -0.33660
13
acq.gzmat
C          0.00000        0.00000        0.00000
H          1.09300        0.00000        0.00000
N         -0.47961        0.00000       -1.41207
H         -1.37679       -0.48502       -1.45278
H         -0.58645        0.96399       -1.72098
C         -0.49584        1.26211        0.72868
H         -1.58789        1.28919        0.74431
H         -0.13407        1.27425        1.75947
H         -0.13407        2.16087        0.22380
C         -0.39425       -1.28861        0.74398
O         -0.10189       -1.56493        1.88303
O         -1.10210       -2.13717        0.06896
H         -1.93237       -2.05830        0.56837
13
acq.gzmat
C          0.00000        0.00000        0.00000
H          1.09300        0.00000        0.00000
N         -0.47961        0.00000       -1.41207
H         -1.14575       -0.76412       -1.53125
H         -0.92981        0.89245       -1.60436
C         -0.49584        1.26211        0.72868
H         -1.58789        1.28919        0.74431
H         -0.13407        1.27425        1.75947
H         -0.13407        2.16087        0.22380
C         -0.39425       -1.28861        0.74398
O         -0.10189       -1.56493        1.88303
O         -1.10210       -2.13717        0.06896
H         -0.45721       -2.33469       -0.63109
13
acq.gzmat
C          0.00000        0.00000        0.00000
H          1.09300        0.00000        0.00000
N         -0.47961        0.00000       -1.41207
H         -0.52790        0.96501       -1.74110
H          0.17587       -0.53295       -1.97990
C         -0.49584        1.26211        0.72868
H         -1.58789        1.28919        0.74431
H         -0.13407        1.27425        1.75947
H         -0.13407        2.16087        0.22380
C         -0.39425       -1.28861        0.74398
O         -0.10189       -1.56493        1.88303
O         -1.10210       -2.13717        0.06896
H         -0.37867       -2.70131       -0.25257
13
acq.gzmat
C          0.00000        0.00000        0.00000
H          1.09300        0.00000        0.00000
N         -0.47961        0.00000       -1.41207
H          0.28599        0.29849       -2.01754
H         -0.77479       -0.94287       -1.65701
C         -0.49584        1.26211        0.72868
H         -1.58789        1.28919        0.74431
H         -0.13407        1.27425        1.75947
H         -0.13407        2.16087        0.22380
C         -0.39425       -1.28861        0.74398
O         -0.10189       -1.56493        1.88303
O         -1.10210       -2.13717        0.06896
H         -1.94191       -2.03373        0.54750
13
acq.gzmat
C          0.00000        0.00000        0.00000
H          1.09300        0.00000        0.00000
N         -0.47961        0.00000       -1.41207
H          0.27326       -0.33710       -2.01322
H         -1.28808       -0.61441       -1.48267
C         -0.49584        1.26211        0.72868
H         -1.58789        1.28919        0.74431
H         -0.13407        1.27425        1.75947
H         -0.13407        2.16087        0.22380
C         -0.39425       -1.28861        0.74398
O         -0.10189       -1.56493        1.88303
O         -1.10210       -2.13717        0.06896
H         -0.37981       -2.56911       -0.41756
13
acq.gzmat
C          0.00000        0.00000        0.00000
H          1.09300        0.00000        0.00000
N         -0.47961        0.00000       -1.41207
H         -1.34166        0.54400       -1.46471
H          0.23733        0.41898       -2.00078
C         -0.49584        1.26211        0.72868
H         -1.58789        1.28919        0.74431
H         -0.13407        1.27425        1.75947
H         -0.13407        2.16087        0.22380
C         -0.39425       -1.28861        0.74398
O         -0.10189       -1.56493        1.88303
O         -1.10210       -2.13717        0.06896
H         -1.95040       -1.66292        0.09025
13
acq.gzmat
C          0.00000        0.00000        0.00000
H          1.09300        0.00000        0.00000
N         -0.47961        0.00000       -1.41207
H          0.31882        0.15534       -2.02869
H         -0.90819       -0.90144       -1.61170
C         -0.49584        1.26211        0.72868
H         -1.58789        1.28919        0.74431
H         -0.13407        1.27425        1.75947
H         -0.13407        2.16087        0.22380
C         -0.39425       -1.28861        0.74398
O         -0.10189       -1.56493        1.88303
O         -1.10210       -2.13717        0.06896
H         -1.87080       -1.56977       -0.11032
13
acq.gzmat
C          0.00000        0.00000        0.00000
H          1.09300        0.00000        0.00000
N         -0.47961        0.00000       -1.41207
H         -1.00851       -0.85709       -1.57787
H         -1.07424        0.81365       -1.55530
C         -0.49584        1.26211        0.72868
H         -1.58789        1.28919        0.74431
H         -0.13407        1.27425        1.75947
H         -0.13407        2.16087        0.22380
C         -0.39425       -1.28861        0.74398
O         -0.10189       -1.56493        1.88303
O         -1.10210       -2.13717        0.06896
H         -0.99524       -1.74154       -0.81254
13
acq.gzmat
C          0.00000        0.00000        0.00000
H          1.09300        0.00000        0.00000
N         -0.47961        0.00000       -1.41207
H         -1.37042       -0.49643       -1.45494
H         -0.59896        0.96388       -1.71673
C         -0.49584        1.26211        0.72868
H         -1.58789        1.28919        0.74431
H         -0.13407        1.27425        1.75947
H         -0.13407        2.16087        0.22380
C         -0.39425       -1.28861        0.74398
O         -0.10189       -1.56493        1.88303
O         -1.10210       -2.13717        0.06896
H         -1.76110       -1.51886       -0.28936
13
acq.gzmat
C          0.00000        0.00000        0.00000
H          1.09300        0.00000        0.00000
N         -0.47961        0.00000       -1.41207
H         -0.54416       -0.96592       -1.73558
H         -1.39470        0.44447       -1.44646
C         -0.49584        1.26211        0.72868
H         -1.58789        1.28919        0.74431
H         -0.13407        1.27425        1.75947
H         -0.13407        2.16087        0.22380
C         -0.39425       -1.28861        0.74398
O         -0.10189       -1.56493        1.88303
O         -1.10210       -2.13717        0.06896
H         -1.95677       -1.99002        0.50813
13
acq.gzmat
C          0.00000        0.00000        0.00000
H          1.09300        0.00000        0.00000
N         -0.47961        0.00000       -1.41207
H         -0.99564        0.86405       -1.58224
H          0.32651       -0.05610       -2.03107
C         -0.49584        1.26211        0.72868
H         -1.58789        1.28919        0.74431
H         -0.13407        1.27425        1.75947
H         -0.13407        2.16087        0.22380
C         -0.39425       -1.28861        0.74398
O         -0.10189       -1.56493        1.88303
O         -1.10210       -2.13717        0.06896
H         -0.57267       -2.93367        0.24295
13
acq.gzmat
C          0.00000        0.00000        0.00000
H          1.09300        0.00000        0.00000
N         -0.47961        0.00000       -1.41207
H          0.12394        0.61203       -1.96250
H         -0.43766       -0.95140       -1.77152
C         -0.49584        1.26211        0.72868
H         -1.58789        1.28919        0.74431
H         -0.13407        1.27425        1.75947
H         -0.13407        2.16087        0.22380
C         -0.39425       -1.28861        0.74398
O         -0.10189       -1.56493        1.88303
O         -1.10210       -2.13717        0.06896
H         -0.41270       -2.43938       -0.54616
13
acq.gzmat
C          0.00000        0.00000        0.00000
H          1.09300        0.00000        0.00000
N         -0.47961        0.00000       -1.41207
H          0.07114       -0.67450       -1.94457
H         -1.46318       -0.26190       -1.42320
C         -0.49584        1.26211        0.72868
H         -1.58789        1.28919        0.74431
H         -0.13407        1.27425        1.75947
H         -0.13407        2.16087        0.22380
C         -0.39425       -1.28861        0.74398
O         -0.10189       -1.56493        1.88303
O         -1.10210       -2.13717        0.06896
H         -1.67969       -1.50537       -0.39168
13
acq.gzmat
C          0.00000        0.00000        0.00000
H          1.09300        0.00000        0.00000
N         -0.47961        0.00000       -1.41207
H          0.00368        0.74067       -1.92165
H         -0.27254       -0.90586       -1.82760
C         -0.49584        1.26211        0.72868
H         -1.58789        1.28919        0.74431
H         -0.13407        1.27425        1.75947
H         -0.13407        2.16087        0.22380
C         -0.39425       -1.28861        0.74398
O         -0.10189       -1.56493        1.88303
O         -1.10210       -2.13717        0.06896
H         -0.60852       -2.94398        0.29352
13
acq.gzmat
C          0.00000        0.00000        0.00000
H          1.09300        0.00000        0.00000
N         -0.47961        0.00000       -1.41207
H          0.14260       -0.58711       -1.96884
H         -1.42735       -0.37063       -1.43537
C         -0.49584        1.26211        0.72868
H         -1.58789        1.28919        0.74431
H         -0.13407        1.27425        1.75947
H         -0.13407        2.16087        0.22380
C         -0.39425       -1.28861        0.74398
O         -0.10189       -1.56493        1.88303
O         -1.10210       -2.13717        0.06896
H         -1.80990       -2.28078        0.71963
13
acq.gzmat
C          0.00000        0.00000        0.00000
H          1.09300        0.00000        0.00000
N         -0.47961        0.00000       -1.41207
H         -1.01289        0.85466       -1.57638
H          0.32743       -0.03569       -2.03138
C         -0.49584        1.26211        0.72868
H         -1.58789        1.28919        0.74431
H         -0.13407        1.27425        1.75947
H         -0.13407        2.16087        0.22380
C         -0.39425       -1.28861        0.74398
O         -0.10189       -1.56493        1.88303
O         -1.10210       -2.13717        0.06896
H         -1.94608       -2.02224        0.53743
