13
acq.gzmat
C          0.00000        0.00000        0.00000
H          1.09300        0.00000        0.00000
N         -0.47961        0.00000       -1.41207
H         -1.48734        0.16215       -1.41523
H         -0.00223        0.74218       -1.91941
C         -0.49584        1.26211        0.72868
H         -1.58789        1.28919        0.74431
H         -0.13407        1.27425        1.75947
H         -0.13407        2.16087        0.22380
C         -0.39425       -1.28861        0.74398
O         -0.10189       -1.56493        1.88303
O         -1.10210       -2.13717        0.06896
H         -1.05873       -1.69999       -0.79820
13
acq.gzmat
C          0.00000        0.00000        0.00000
H          1.09300        0.00000        0.00000
N         -0.47961        0.00000       -1.41207
H          0.02148        0.72448       -1.92770
H         -0.29465       -0.91402       -1.82009
C         -0.49584        1.26211        0.72868
H         -1.58789        1.28919        0.74431
H         -0.13407        1.27425        1.75947
H         -0.13407        2.16087        0.22380
C         -0.39425       -1.28861        0.74398
O         -0.10189       -1.56493        1.88303
O         -1.10210       -2.13717        0.06896
H         -1.19445       -2.82114        0.75353
13
acq.gzmat
C          0.00000        0.00000        0.00000
H          1.09300        0.00000        0.00000
N         -0.47961        0.00000       -1.41207
H         -1.50026       -0.00986       -1.41084
H         -0.13642        0.83971       -1.87383
C         -0.49584        1.26211        0.72868
H         -1.58789        1.28919        0.74431
H         -0.13407        1.27425        1.75947
H         -0.13407        2.16087        0.22380
C         -0.39425       -1.28861        0.74398
O         -0.10189       -1.56493        1.88303
O         -1.10210       -2.13717        0.06896
H         -1.26315       -2.78292        0.77752
13
acq.gzmat
C          0.00000        0.00000        0.00000
H          1.09300        0.00000        0.00000
N         -0.47961        0.00000       -1.41207
H         -0.54280        0.96586       -1.73604
H          0.18399       -0.51979       -1.98266
C         -0.49584        1.26211        0.72868
H         -1.58789        1.28919        0.74431
H         -0.13407        1.27425        1.75947
H         -0.13407        2.16087        0.22380
C         -0.39425       -1.28861        0.74398
O         -0.10189       -1.56493        1.88303
O         -1.10210       -2.13717        0.06896
H         -1.14577       -1.64926       -0.77069
13
acq.gzmat
C          0.00000        0.00000        0.00000
H          1.09300        0.00000        0.00000
N         -0.47961        0.00000       -1.41207
H         -0.38615       -0.94384       -1.78925
H         -1.45542        0.28937       -1.42584
C         -0.49584        1.26211        0.72868
H         -1.58789        1.28919        0.74431
H         -0.13407        1.27425        1.75947
H         -0.13407        2.16087        0.22380
C         -0.39425       -1.28861        0.74398
O         -0.10189       -1.56493        1.88303
O         -1.10210       -2.13717        0.06896
H         -1.15971       -2.83881        0.73931
13
acq.gzmat
C          0.00000        0.00000        0.00000
H          1.09300        0.00000        0.00000
N         -0.47961        0.00000       -1.41207
H         -0.12202       -0.83425       -1.87896
H         -1.49749       -0.00612       -1.41155
C         -0.49584        1.26211        0.72868
H         -1.58789        1.28919        0.74431
H         -0.13407        1.27425        1.75947
H         -0.13407        2.16087        0.22380
C         -0.39425       -1.28861        0.74398
O         -0.10189       -1.56493        1.88303
O         -1.10210       -2.13717        0.06896
H         -1.27418       -1.58727       -0.71397
13
acq.gzmat
C          0.00000        0.00000        0.00000
H          1.09300        0.00000        0.00000
N         -0.47961        0.00000       -1.41207
H          0.27975       -0.31806       -2.01542
H         -1.27576       -0.62982       -1.48686
C         -0.49584        1.26211        0.72868
H         -1.58789        1.28919        0.74431
H         -0.13407        1.27425        1.75947
H         -0.13407        2.16087        0.22380
C         -0.39425       -1.28861        0.74398
O         -0.10189       -1.56493        1.88303
O         -1.10210       -2.13717        0.06896
H         -0.95627       -2.91944        0.62733
13
acq.gzmat
C          0.00000        0.00000        0.00000
H          1.09300        0.00000        0.00000
N         -0.47961        0.00000       -1.41207
H         -1.13666       -0.77147       -1.53434
H         -0.94035        0.88782       -1.60078
C         -0.49584        1.26211        0.72868
H         -1.58789        1.28919        0.74431
H         -0.13407        1.27425        1.75947
H         -0.13407        2.16087        0.22380
C         -0.39425       -1.28861        0.74398
O         -0.10189       -1.56493        1.88303
O         -1.10210       -2.13717        0.06896
H         -1.44981       -2.65609        0.81381
13
acq.gzmat
C          0.00000        0.00000        0.00000
H          1.09300        0.00000        0.00000
N         -0.47961        0.00000       -1.41207
H         -0.75790        0.94943       -1.66298
H          0.27780       -0.31545       -2.01452
C         -0.49584        1.26211        0.72868
H         -1.58789        1.28919        0.74431
H         -0.13407        1.27425        1.75947
H         -0.13407        2.16087        0.22380
C         -0.39425       -1.28861        0.74398
O         -0.10189       -1.56493        1.88303
O         -1.10210       -2.13717        0.06896
H         -1.18052       -2.82836        0.74799
13
acq.gzmat
C          0.00000        0.00000        0.00000
H          1.09300        0.00000        0.00000
N         -0.47961        0.00000       -1.41207
H         -1.14019        0.76864       -1.53314
H          0.32056        0.12328       -2.02904
C         -0.49584        1.26211        0.72868
H         -1.58789        1.28919        0.74431
H         -0.13407        1.27425        1.75947
H         -0.13407        2.16087        0.22380
C         -0.39425       -1.28861        0.74398
O         -0.10189       -1.56493        1.88303
O         -1.10210       -2.13717        0.06896
H         -1.30916       -1.57305       -0.69515
13
acq.gzmat
C          0.00000        0.00000        0.00000
H          1.09300        0.00000        0.00000
N         -0.47961        0.00000       -1.41207
H         -0.19086        0.87278       -1.85558
H         -0.06755       -0.79432       -1.89723
C         -0.49584        1.26211        0.72868
H         -1.58789        1.28919        0.74431
H         -0.13407        1.27425        1.75947
H         -0.13407        2.16087        0.22380
C         -0.39425       -1.28861        0.74398
O         -0.10189       -1.56493        1.88303
O         -1.10210       -2.13717        0.06896
H         -0.67815       -2.95476        0.38008
13
acq.gzmat
C          0.00000        0.00000        0.00000
H          1.09300        0.00000        0.00000
N         -0.47961        0.00000       -1.41207
H         -1.32686        0.56628       -1.46974
H          0.24817        0.39438       -2.00446
C         -0.49584        1.26211        0.72868
H         -1.58789        1.28919        0.74431
H         -0.13407        1.27425        1.75947
H         -0.13407        2.16087        0.22380
C         -0.39425       -1.28861        0.74398
O         -0.10189       -1.56493        1.88303
O         -1.10210       -2.13717        0.06896
H         -1.65343       -2.47216        0.79614
13
acq.gzmat
C          0.00000        0.00000        0.00000
H          1.09300        0.00000        0.00000
N         -0.47961        0.00000       -1.41207
H         -0.26698        0.90674       -1.82973
H         -0.00184       -0.74184       -1.91954
C         -0.49584        1.26211        0.72868
H         -1.58789        1.28919        0.74431
H         -0.13407        1.27425        1.75947
H         -0.13407        2.16087        0.22380
C         -0.39425       -1.28861        0.74398
O         -0.10189       -1.56493        1.88303
O         -1.10210       -2.13717        0.06896
H         -1.60949       -2.51677        0.80614
13
acq.gzmat
C          0.00000        0.00000        0.00000
H          1.09300        0.00000        0.00000
N         -0.47961        0.00000       -1.41207
H         -1.39562        0.44898       -1.44638
H          0.18655        0.51556       -1.98353
C         -0.49584        1.26211        0.72868
H         -1.58789        1.28919        0.74431
H         -0.13407        1.27425        1.75947
H         -0.13407        2.16087        0.22380
C         -0.39425       -1.28861        0.74398
O         -0.10189       -1.56493        1.88303
O         -1.10210       -2.13717        0.06896
H         -0.87340       -2.94029        0.56664
13
acq.gzmat
C          0.00000        0.00000        0.00000
H          1.09300        0.00000        0.00000
N         -0.47961        0.00000       -1.41207
H          0.31089        0.20008       -2.02600
H         -0.86766       -0.91651       -1.62547
C         -0.49584        1.26211        0.72868
H         -1.58789        1.28919        0.74431
H         -0.13407        1.27425        1.75947
H         -0.13407        2.16087        0.22380
C         -0.39425       -1.28861        0.74398
O         -0.10189       -1.56493        1.88303
O         -1.10210       -2.13717        0.06896
H         -1.33721       -2.73674        0.79713
13
acq.gzmat
C          0.00000        0.00000        0.00000
H          1.09300        0.00000        0.00000
N         -0.47961        0.00000       -1.41207
H         -1.01993        0.85069       -1.57399
H          0.32769       -0.02729       -2.03147
C         -0.49584        1.26211        0.72868
H         -1.58789        1.28919        0.74431
H         -0.13407        1.27425        1.75947
H         -0.13407        2.16087        0.22380
C         -0.39425       -1.28861        0.74398
O         -0.10189       -1.56493        1.88303
O         -1.10210       -2.13717        0.06896
H         -1.07439       -1.69034       -0.79391
13
acq.gzmat
C          0.00000        0.00000        0.00000
H          1.09300        0.00000        0.00000
N         -0.47961        0.00000       -1.41207
H         -1.30161        0.60146       -1.47831
H          0.26435        0.35382       -2.00995
C         -0.49584        1.26211        0.72868
H         -1.58789        1.28919        0.74431
H         -0.13407        1.27425        1.75947
H         -0.13407        2.16087        0.22380
C         -0.39425       -1.28861        0.74398
O         -0.10189       -1.56493        1.88303
O         -1.10210       -2.13717        0.06896
H         -1.10759       -1.67064       -0.78386
13
acq.gzmat
C          0.00000        0.00000        0.00000
H          1.09300        0.00000        0.00000
N         -0.47961        0.00000       -1.41207
H          0.18779       -0.51875       -1.98419
H         -1.39398       -0.44591       -1.44670
C         -0.49584        1.26211        0.72868
H         -1.58789        1.28919        0.74431
H         -0.13407        1.27425        1.75947
H         -0.13407        2.16087        0.22380
C         -0.39425       -1.28861        0.74398
O         -0.10189       -1.56493        1.88303
O         -1.10210       -2.13717        0.06896
H         -0.74790       -1.94532       -0.81575
13
acq.gzmat
C          0.00000        0.00000        0.00000
H          1.09300        0.00000        0.00000
N         -0.47961        0.00000       -1.41207
H         -0.86489        0.92051       -1.62665
H          0.30749       -0.20348       -2.02461
C         -0.49584        1.26211        0.72868
H         -1.58789        1.28919        0.74431
H         -0.13407        1.27425        1.75947
H         -0.13407        2.16087        0.22380
C         -0.39425       -1.28861        0.74398
O         -0.10189       -1.56493        1.88303
O         -1.10210       -2.13717        0.06896
H         -1.22571       -1.60887       -0.73764
13
acq.gzmat
C          0.00000        0.00000        0.00000
H          1.09300        0.00000        0.00000
N         -0.47961        0.00000       -1.41207
H          0.02271       -0.72333       -1.92812
H         -1.47895       -0.19339       -1.41784
C         -0.49584        1.26211        0.72868
H         -1.58789        1.28919        0.74431
H         -0.13407        1.27425        1.75947
H         -0.13407        2.16087        0.22380
C         -0.39425       -1.28861        0.74398
O         -0.10189       -1.56493        1.88303
O         -1.10210       -2.13717        0.06896
H         -1.20758       -2.81418        0.75854
13
acq.gzmat
C          0.00000        0.00000        0.00000
H          1.09300        0.00000        0.00000
N         -0.47961        0.00000       -1.41207
H         -1.09800        0.80068       -1.54747
H          0.32572        0.06883       -2.03080
C         -0.49584        1.26211        0.72868
H         -1.58789        1.28919        0.74431
H         -0.13407        1.27425        1.75947
H         -0.13407        2.16087        0.22380
C         -0.39425       -1.28861        0.74398
O         -0.10189       -1.56493        1.88303
O         -1.10210       -2.13717        0.06896
H         -1.15342       -1.64514       -0.76785
13
acq.gzmat
C          0.00000        0.00000        0.00000
H          1.09300        0.00000        0.00000
N         -0.47961        0.00000       -1.41207
H         -0.12985       -0.83904       -1.87630
H         -1.49750        0.00341       -1.41154
C         -0.49584        1.26211        0.72868
H         -1.58789        1.28919        0.74431
H         -0.13407        1.27425        1.75947
H         -0.13407        2.16087        0.22380
C         -0.39425       -1.28861        0.74398
O         -0.10189       -1.56493        1.88303
O         -1.10210       -2.13717        0.06896
H         -0.86720       -2.94154        0.56171
13
acq.gzmat
C          0.00000        0.00000        0.00000
H          1.09300        0.00000        0.00000
N         -0.47961        0.00000       -1.41207
H         -1.11063       -0.79149       -1.54318
H         -0.96970        0.87406       -1.59081
C         -0.49584        1.26211        0.72868
H         -1.58789        1.28919        0.74431
H         -0.13407        1.27425        1.75947
H         -0.13407        2.16087        0.22380
C         -0.39425       -1.28861        0.74398
O         -0.10189       -1.56493        1.88303
O         -1.10210       -2.13717        0.06896
H         -1.92854       -1.62743        0.02271
13
acq.gzmat
C          0.00000        0.00000        0.00000
H          1.09300        0.00000        0.00000
N         -0.47961        0.00000       -1.41207
H          0.24238        0.41435       -2.00273
H         -0.65832       -0.96086       -1.69657
C         -0.49584        1.26211        0.72868
H         -1.58789        1.28919        0.74431
H         -0.13407        1.27425        1.75947
H         -0.13407        2.16087        0.22380
C         -0.39425       -1.28861        0.74398
O         -0.10189       -1.56493        1.88303
O         -1.10210       -2.13717        0.06896
H         -0.39763       -2.48672       -0.50246
13
acq.gzmat
C          0.00000        0.00000        0.00000
H          1.09300        0.00000        0.00000
N         -0.47961        0.00000       -1.41207
H          0.27244       -0.33944       -2.01294
H         -1.28959       -0.61249       -1.48216
C         -0.49584        1.26211        0.72868
H         -1.58789        1.28919        0.74431
H         -0.13407        1.27425        1.75947
H         -0.13407        2.16087        0.22380
C         -0.39425       -1.28861        0.74398
O         -0.10189       -1.56493        1.88303
O         -1.10210       -2.13717        0.06896
H         -1.89682       -1.59143       -0.05581
13
acq.gzmat
C          0.00000        0.00000        0.00000
H          1.09300        0.00000        0.00000
N         -0.47961        0.00000       -1.41207
H         -0.99890       -0.86231       -1.58113
H         -1.08330        0.80749       -1.55223
C         -0.49584        1.26211        0.72868
H         -1.58789        1.28919        0.74431
H         -0.13407        1.27425        1.75947
H         -0.13407        2.16087        0.22380
C         -0.39425       -1.28861        0.74398
O         -0.10189       -1.56493        1.88303
O         -1.10210       -2.13717        0.06896
H         -0.80286       -1.89350       -0.82326
13
acq.gzmat
C          0.00000        0.00000        0.00000
H          1.09300        0.00000        0.00000
N         -0.47961        0.00000       -1.41207
H         -1.50023        0.01272       -1.41085
H         -0.11798        0.82843       -1.88010
C         -0.49584        1.26211        0.72868
H         -1.58789        1.28919        0.74431
H         -0.13407        1.27425        1.75947
H         -0.13407        2.16087        0.22380
C         -0.39425       -1.28861        0.74398
O         -0.10189       -1.56493        1.88303
O         -1.10210       -2.13717        0.06896
H         -1.98399       -1.79040        0.28573
13
acq.gzmat
C          0.00000        0.00000        0.00000
H          1.09300        0.00000        0.00000
N         -0.47961        0.00000       -1.41207
H         -0.82660        0.93254       -1.63965
H          0.29823       -0.24439       -2.02146
C         -0.49584        1.26211        0.72868
H         -1.58789        1.28919        0.74431
H         -0.13407        1.27425        1.75947
H         -0.13407        2.16087        0.22380
C         -0.39425       -1.28861        0.74398
O         -0.10189       -1.56493        1.88303
O         -1.10210       -2.13717        0.06896
H         -1.98428       -1.79511        0.29196
13
acq.gzmat
C          0.00000        0.00000        0.00000
H          1.09300        0.00000        0.00000
N         -0.47961        0.00000       -1.41207
H         -1.48109       -0.19706       -1.41735
H         -0.29903        0.91556       -1.81860
C         -0.49584        1.26211        0.72868
H         -1.58789        1.28919        0.74431
H         -0.13407        1.27425        1.75947
H         -0.13407        2.16087        0.22380
C         -0.39425       -1.28861        0.74398
O         -0.10189       -1.56493        1.88303
O         -1.10210       -2.13717        0.06896
H         -0.37565       -2.60678       -0.37458
13
acq.gzmat
C          0.00000        0.00000        0.00000
H          1.09300        0.00000        0.00000
N         -0.47961        0.00000       -1.41207
H         -0.86489        0.92051       -1.62665
H          0.30749       -0.20348       -2.02461
C         -0.49584        1.26211        0.72868
H         -1.58789        1.28919        0.74431
H         -0.13407        1.27425        1.75947
H         -0.13407        2.16087        0.22380
C         -0.39425       -1.28861        0.74398
O         -0.10189       -1.56493        1.88303
O         -1.10210       -2.13717        0.06896
H         -0.38115       -2.71570       -0.23189
13
acq.gzmat
C          0.00000        0.00000        0.00000
H          1.09300        0.00000        0.00000
N         -0.47961        0.00000       -1.41207
H          0.31576        0.17400       -2.02765
H         -0.89141       -0.90795       -1.61740
C         -0.49584        1.26211        0.72868
H         -1.58789        1.28919        0.74431
H         -0.13407        1.27425        1.75947
H         -0.13407        2.16087        0.22380
C         -0.39425       -1.28861        0.74398
O         -0.10189       -1.56493        1.88303
O         -1.10210       -2.13717        0.06896
H         -1.21913       -1.61197       -0.74064
13
acq.gzmat
C          0.00000        0.00000        0.00000
H          1.09300        0.00000        0.00000
N         -0.47961        0.00000       -1.41207
H         -0.39198       -0.94519       -1.78727
H         -1.45361        0.29535       -1.42645
C         -0.49584        1.26211        0.72868
H         -1.58789        1.28919        0.74431
H         -0.13407        1.27425        1.75947
H         -0.13407        2.16087        0.22380
C         -0.39425       -1.28861        0.74398
O         -0.10189       -1.56493        1.88303
O         -1.10210       -2.13717        0.06896
H         -1.98490       -1.81400        0.31635
13
acq.gzmat
C          0.00000        0.00000        0.00000
H          1.09300        0.00000        0.00000
N         -0.47961        0.00000       -1.41207
H          0.26723        0.35376       -2.01117
H         -0.72025       -0.95331       -1.67554
C         -0.49584        1.26211        0.72868
H         -1.58789        1.28919        0.74431
H         -0.13407        1.27425        1.75947
H         -0.13407        2.16087        0.22380
C         -0.39425       -1.28861        0.74398
O         -0.10189       -1.56493        1.88303
O         -1.10210       -2.13717        0.06896
H         -1.96274       -1.96961        0.48873
13
acq.gzmat
C          0.00000        0.00000        0.00000
H          1.09300        0.00000        0.00000
N         -0.47961        0.00000       -1.41207
H         -1.38693       -0.46607       -1.44934
H         -0.56590        0.96379       -1.72796
C         -0.49584        1.26211        0.72868
H         -1.58789        1.28919        0.74431
H         -0.13407        1.27425        1.75947
H         -0.13407        2.16087        0.22380
C         -0.39425       -1.28861        0.74398
O         -0.10189       -1.56493        1.88303
O         -1.10210       -2.13717        0.06896
H         -1.55434       -1.50876       -0.51887
13
acq.gzmat
C          0.00000        0.00000        0.00000
H          1.09300        0.00000        0.00000
N         -0.47961        0.00000       -1.41207
H          0.25007       -0.39678       -2.00534
H         -1.32531       -0.56351       -1.47003
C         -0.49584        1.26211        0.72868
H         -1.58789        1.28919        0.74431
H         -0.13407        1.27425        1.75947
H         -0.13407        2.16087        0.22380
C         -0.39425       -1.28861        0.74398
O         -0.10189       -1.56493        1.88303
O         -1.10210       -2.13717        0.06896
H         -0.38316       -2.72534       -0.21766
13
acq.gzmat
C          0.00000        0.00000        0.00000
H          1.09300        0.00000        0.00000
N         -0.47961        0.00000       -1.41207
H         -1.38028       -0.47860       -1.45159
H         -0.57947        0.96398       -1.72335
C         -0.49584        1.26211        0.72868
H         -1.58789        1.28919        0.74431
H         -0.13407        1.27425        1.75947
H         -0.13407        2.16087        0.22380
C         -0.39425       -1.28861        0.74398
O         -0.10189       -1.56493        1.88303
O         -1.10210       -2.13717        0.06896
H         -1.87382       -2.17892        0.65861
13
acq.gzmat
C          0.00000        0.00000        0.00000
H          1.09300        0.00000        0.00000
N         -0.47961        0.00000       -1.41207
H         -0.28441        0.91335       -1.82380
H          0.01226       -0.72923       -1.92433
C         -0.49584        1.26211        0.72868
H         -1.58789        1.28919        0.74431
H         -0.13407        1.27425        1.75947
H         -0.13407        2.16087        0.22380
C         -0.39425       -1.28861        0.74398
O         -0.10189       -1.56493        1.88303
O         -1.10210       -2.13717        0.06896
H         -0.41603       -2.43011       -0.55432
13
acq.gzmat
C          0.00000        0.00000        0.00000
H          1.09300        0.00000        0.00000
N         -0.47961        0.00000       -1.41207
H         -0.68023       -0.96161       -1.68937
H         -1.32334        0.56639       -1.47070
C         -0.49584        1.26211        0.72868
H         -1.58789        1.28919        0.74431
H         -0.13407        1.27425        1.75947
H         -0.13407        2.16087        0.22380
C         -0.39425       -1.28861        0.74398
O         -0.10189       -1.56493        1.88303
O         -1.10210       -2.13717        0.06896
H         -1.61802       -1.50395       -0.45814
13
acq.gzmat
C          0.00000        0.00000        0.00000
H          1.09300        0.00000        0.00000
N         -0.47961        0.00000       -1.41207
H          0.25625        0.38195       -2.00744
H         -0.69173       -0.95735       -1.68522
C         -0.49584        1.26211        0.72868
H         -1.58789        1.28919        0.74431
H         -0.13407        1.27425        1.75947
H         -0.13407        2.16087        0.22380
C         -0.39425       -1.28861        0.74398
O         -0.10189       -1.56493        1.88303
O         -1.10210       -2.13717        0.06896
H         -0.49323       -2.89388        0.10963
13
acq.gzmat
C          0.00000        0.00000        0.00000
H          1.09300        0.00000        0.00000
N         -0.47961        0.00000       -1.41207
H         -1.19885       -0.71714       -1.51322
H         -0.86493        0.91745       -1.62639
C         -0.49584        1.26211        0.72868
H         -1.58789        1.28919        0.74431
H         -0.13407        1.27425        1.75947
H         -0.13407        2.16087        0.22380
C         -0.39425       -1.28861        0.74398
O         -0.10189       -1.56493        1.88303
O         -1.10210       -2.13717        0.06896
H         -0.43437       -2.38406       -0.59298
13
acq.gzmat
C          0.00000        0.00000        0.00000
H          1.09300        0.00000        0.00000
N         -0.47961        0.00000       -1.41207
H         -0.36205       -0.93782       -1.79743
H         -1.46251        0.26439       -1.42343
C         -0.49584        1.26211        0.72868
H         -1.58789        1.28919        0.74431
H         -0.13407        1.27425        1.75947
H         -0.13407        2.16087        0.22380
C         -0.39425       -1.28861        0.74398
O         -0.10189       -1.56493        1.88303
O         -1.10210       -2.13717        0.06896
H         -0.58616       -2.12865       -0.75488
13
acq.gzmat
C          0.00000        0.00000        0.00000
H          1.09300        0.00000        0.00000
N         -0.47961        0.00000       -1.41207
H         -0.70248       -0.95885       -1.68181
H         -1.31000        0.58531       -1.47523
C         -0.49584        1.26211        0.72868
H         -1.58789        1.28919        0.74431
H         -0.13407        1.27425        1.75947
H         -0.13407        2.16087        0.22380
C         -0.39425       -1.28861        0.74398
O         -0.10189       -1.56493        1.88303
O         -1.10210       -2.13717        0.06896
H         -1.82289       -2.26166        0.70922
13
acq.gzmat
C          0.00000        0.00000        0.00000
H          1.09300        0.00000        0.00000
N         -0.47961        0.00000       -1.41207
H         -0.13566        0.84253       -1.87433
H         -0.11980       -0.82957       -1.87948
C         -0.49584        1.26211        0.72868
H         -1.58789        1.28919        0.74431
H         -0.13407        1.27425        1.75947
H         -0.13407        2.16087        0.22380
C         -0.39425       -1.28861        0.74398
O         -0.10189       -1.56493        1.88303
O         -1.10210       -2.13717        0.06896
H         -1.98465       -1.83441        0.34175
13
acq.gzmat
C          0.00000        0.00000        0.00000
H          1.09300        0.00000        0.00000
N         -0.47961        0.00000       -1.41207
H          0.10978        0.62988       -1.95769
H         -0.41601       -0.94738       -1.77887
C         -0.49584        1.26211        0.72868
H         -1.58789        1.28919        0.74431
H         -0.13407        1.27425        1.75947
H         -0.13407        2.16087        0.22380
C         -0.39425       -1.28861        0.74398
O         -0.10189       -1.56493        1.88303
O         -1.10210       -2.13717        0.06896
H         -0.73023       -1.96293       -0.81213
13
acq.gzmat
C          0.00000        0.00000        0.00000
H          1.09300        0.00000        0.00000
N         -0.47961        0.00000       -1.41207
H         -1.40109        0.43778       -1.44453
H          0.18012        0.52613       -1.98134
C         -0.49584        1.26211        0.72868
H         -1.58789        1.28919        0.74431
H         -0.13407        1.27425        1.75947
H         -0.13407        2.16087        0.22380
C         -0.39425       -1.28861        0.74398
O         -0.10189       -1.56493        1.88303
O         -1.10210       -2.13717        0.06896
H         -0.43430       -2.83758       -0.02293
13
acq.gzmat
C          0.00000        0.00000        0.00000
H          1.09300        0.00000        0.00000
N         -0.47961        0.00000       -1.41207
H         -1.32533        0.56851       -1.47026
H          0.24923        0.39187       -2.00482
C         -0.49584        1.26211        0.72868
H         -1.58789        1.28919        0.74431
H         -0.13407        1.27425        1.75947
H         -0.13407        2.16087        0.22380
C         -0.39425       -1.28861        0.74398
O         -0.10189       -1.56493        1.88303
O         -1.10210       -2.13717        0.06896
H         -1.98491       -1.82177        0.32613
13
acq.gzmat
C          0.00000        0.00000        0.00000
H          1.09300        0.00000        0.00000
N         -0.47961        0.00000       -1.41207
H         -1.38930       -0.46148       -1.44853
H         -0.56097        0.96367       -1.72963
C         -0.49584        1.26211        0.72868
H         -1.58789        1.28919        0.74431
H         -0.13407        1.27425        1.75947
H         -0.13407        2.16087        0.22380
C         -0.39425       -1.28861        0.74398
O         -0.10189       -1.56493        1.88303
O         -1.10210       -2.13717        0.06896
H         -0.75815       -1.93532       -0.81757
13
acq.gzmat
C          0.00000        0.00000        0.00000
H          1.09300        0.00000        0.00000
N         -0.47961        0.00000       -1.41207
H         -1.45893       -0.28738       -1.42488
H         -0.38392        0.94038       -1.78977
C         -0.49584        1.26211        0.72868
H         -1.58789        1.28919        0.74431
H         -0.13407        1.27425        1.75947
H         -0.13407        2.16087        0.22380
C         -0.39425       -1.28861        0.74398
O         -0.10189       -1.56493        1.88303
O         -1.10210       -2.13717        0.06896
H         -0.77032       -2.95482        0.47682
13
acq.gzmat
C          0.00000        0.00000        0.00000
H          1.09300        0.00000        0.00000
N         -0.47961        0.00000       -1.41207
H         -0.09351       -0.81587       -1.88864
H         -1.49667       -0.04128       -1.41182
C         -0.49584        1.26211        0.72868
H         -1.58789        1.28919        0.74431
H         -0.13407        1.27425        1.75947
H         -0.13407        2.16087        0.22380
C         -0.39425       -1.28861        0.74398
O         -0.10189       -1.56493        1.88303
O         -1.10210       -2.13717        0.06896
H         -1.75333       -1.51688       -0.29999
13
acq.gzmat
C          0.00000        0.00000        0.00000
H          1.09300        0.00000        0.00000
N         -0.47961        0.00000       -1.41207
H         -0.95775        0.88301       -1.59511
H          0.32312       -0.10010       -2.02991
C         -0.49584        1.26211        0.72868
H         -1.58789        1.28919        0.74431
H         -0.13407        1.27425        1.75947
H         -0.13407        2.16087        0.22380
C         -0.39425       -1.28861        0.74398
O         -0.10189       -1.56493        1.88303
O         -1.10210       -2.13717        0.06896
H         -1.80503       -2.28778        0.72332
